version 2
run General-0-20200506-14:27:02-51776
attr configname General
attr datetime 20200506-14:27:02
attr experiment General
attr inifile omnetpp.ini
attr iterationvars ""
attr iterationvarsf ""
attr measurement ""
attr network BrnoPorici
attr processid 51776
attr repetition 0
attr replication #0
attr resultdir veins-runall-output
attr runnumber 0
attr seedset 42
param *.playgroundSizeX 1800m
param *.playgroundSizeY 600m
param *.playgroundSizeZ 50m
param *.annotations.draw true
param *.obstacles.obstacles "xmldoc(\"config.xml\", \"//AnalogueModel[@type='SimpleObstacleShadowing']/obstacles\")"
param *.world.useTorus false
param *.world.use2D false
param *.manager.updateInterval 0.1s
param *.manager.host "\"localhost\""
param *.manager.port 9999
param *.manager.firstStepAt 25200s
param *.manager.moduleType "\"EMERGENCY_AMB=org.car2x.veins.nodes.Car TRAM=org.car2x.veins.nodes.Car BUS=org.car2x.veins.nodes.Car TROLLEYBUS=org.car2x.veins.nodes.Car *=0\""
param *.manager.moduleName "\"EMERGENCY_AMB=emergNode TRAM=tramNode BUS=busNode TROLLEYBUS=trolleyNode *=0\""
param *.manager.moduleDisplayString "\"EMERGENCY_AMB='i=emergency' TRAM='i=tram' BUS='i=bus' TROLLEYBUS='i=trolley' *='i=veins/node/car;is=vs'\""
param *.manager.autoShutdown true
param *.manager.margin 25
param *.manager.launchConfig "xmldoc(\"brno_porici.launchd.xml\")"
param *.manager.trafficLightModuleType "\"org.car2x.veins.nodes.TrafficLight\""
param *.manager.trafficLightModuleName "\"trafficLight\""
param *.manager.trafficLightModuleDisplayString "\"i=trafficlight\""
param *.manager.trafficLightFilter "\"2_06\""
param *.trafficLight[*].mobility.x 0
param *.trafficLight[*].mobility.y 0
param *.trafficLight[*].mobility.z 3
param *.trafficLight[*].applType "\"QdpTrafficLightApp\""
param *.trafficLight[*].logicType "\"QdpTrafficLightLogic\""
param *.trafficLight[*].appl.headerLength "80 bit"
param *.trafficLight[*].appl.dataOnSch true
param *.trafficLight[*].appl.firstStepAt 25200s
param *.trafficLight[*].appl.approachRoadID "\"-4463914#2\""
param *.trafficLight[*].appl.approachDetIDs "\"2_06_e2_east_0 2_06_e2_east_1\""
param *.connectionManager.sendDirect true
param *.connectionManager.maxInterfDist 2600m
param *.connectionManager.drawMaxIntfDist false
param *.**.nic.mac1609_4.useServiceChannel false
param *.**.nic.mac1609_4.txPower 20mW
param *.**.nic.mac1609_4.bitrate 6Mbps
param *.**.nic.phy80211p.minPowerLevel -110dBm
param *.**.nic.phy80211p.useNoiseFloor true
param *.**.nic.phy80211p.noiseFloor -98dBm
param *.**.nic.phy80211p.decider "xmldoc(\"config.xml\")"
param *.**.nic.phy80211p.analogueModels "xmldoc(\"config.xml\")"
param *.**.nic.phy80211p.usePropagationDelay true
param *.**.nic.phy80211p.antenna "xmldoc(\"antenna.xml\", \"/root/Antenna[@id='monopole']\")"
param *.node[*].nic.phy80211p.antennaOffsetY "0 m"
param *.node[*].nic.phy80211p.antennaOffsetZ "1.895 m"
param *.carNode[*].applType "\"MyVeinsApp\""
param *.carNode[*].appl.sendBeacons false
param *.tramNode[*].applType "\"ForwarderAppl\""
param *.tramNode[*].appl.sendBeacons false
param *.busNode[*].applType "\"ForwarderAppl\""
param *.busNode[*].appl.sendBeacons false
param *.trolleyNode[*].applType "\"ForwarderAppl\""
param *.trolleyNode[*].appl.sendBeacons false
param *.emergNode[*].applType "\"EmergencyAppl\""
param *.emergNode[*].veinsmobilityType "\"org.car2x.veins.modules.mobility.traci.TraCIMobility\""
param *.emergNode[*].veinsmobility.x 0
param *.emergNode[*].veinsmobility.y 0
param *.emergNode[*].veinsmobility.z 1.895
param *.emergNode[*].veinsmobility.accidentCount 0
param *.emergNode[*].veinsmobility.setHostSpeed true
param *.tramNode[*].veinsmobilityType "\"org.car2x.veins.modules.mobility.traci.TraCIMobility\""
param *.tramNode[*].veinsmobility.x 0
param *.tramNode[*].veinsmobility.y 0
param *.tramNode[*].veinsmobility.z 1.895
param *.tramNode[*].veinsmobility.accidentCount 0
param *.tramNode[*].veinsmobility.setHostSpeed true
param *.busNode[*].veinsmobilityType "\"org.car2x.veins.modules.mobility.traci.TraCIMobility\""
param *.busNode[*].veinsmobility.x 0
param *.busNode[*].veinsmobility.y 0
param *.busNode[*].veinsmobility.z 1.895
param *.busNode[*].veinsmobility.accidentCount 0
param *.busNode[*].veinsmobility.setHostSpeed true
param *.trolleyNode[*].veinsmobilityType "\"org.car2x.veins.modules.mobility.traci.TraCIMobility\""
param *.trolleyNode[*].veinsmobility.x 0
param *.trolleyNode[*].veinsmobility.y 0
param *.trolleyNode[*].veinsmobility.z 1.895
param *.trolleyNode[*].veinsmobility.accidentCount 0
param *.trolleyNode[*].veinsmobility.setHostSpeed true

vector 0 BrnoPorici.tramNode[0].veinsmobility posx ETV
vector 1 BrnoPorici.tramNode[0].veinsmobility posy ETV
vector 2 BrnoPorici.tramNode[1].veinsmobility posx ETV
vector 3 BrnoPorici.tramNode[1].veinsmobility posy ETV
vector 4 BrnoPorici.tramNode[0].veinsmobility speed ETV
vector 5 BrnoPorici.tramNode[1].veinsmobility speed ETV
vector 6 BrnoPorici.tramNode[0].veinsmobility acceleration ETV
vector 7 BrnoPorici.tramNode[0].veinsmobility co2emission ETV
vector 8 BrnoPorici.tramNode[1].veinsmobility acceleration ETV
vector 9 BrnoPorici.tramNode[1].veinsmobility co2emission ETV
7	9	25200.3	1.167848739031
7	11	25200.4	1.1967744942298
7	13	25200.5	1.2257019122483
7	15	25200.6	1.25463154736
7	17	25200.7	1.2835639538381
7	19	25200.8	1.3124996859558
7	21	25200.9	1.3414392979866
7	24	25201	1.3703833442035
7	26	25201.1	1.39933237888
7	28	25201.2	1.4282869562893
7	30	25201.3	1.4572476307046
7	32	25201.4	1.4862149563994
7	34	25201.5	1.5151894876467
7	36	25201.6	1.54417177872
7	38	25201.7	1.5731623838925
7	40	25201.8	1.6021618574374
7	42	25201.9	1.6311707536282
7	45	25202	1.6601896267379
7	47	25202.1	1.68921903104
7	49	25202.2	1.7182595208077
7	51	25202.3	1.7473116503142
7	53	25202.4	1.776375973833
7	55	25202.5	1.8054530456371
7	57	25202.6	1.83454342
7	59	25202.7	1.8636476511949
7	61	25202.8	1.892766293495
7	63	25202.9	1.9218999011738
7	66	25203	1.9510490285043
7	68	25203.1	1.98021422976
7	70	25203.2	2.0093960592141
7	72	25203.3	2.0385950711398
7	74	25203.4	2.0678118198106
7	76	25203.5	2.0970468594995
7	78	25203.6	2.12630074448
7	80	25203.7	2.1555740290253
7	82	25203.8	2.1848672674086
7	84	25203.9	2.2141810139034
7	87	25204	2.2435158227827
7	89	25204.1	2.27287224832
7	91	25204.2	2.3022508447885
7	93	25204.3	2.3316521664614
7	95	25204.4	2.3610767676122
7	97	25204.5	2.3905252025139
7	99	25204.6	2.41999802544
7	101	25204.7	2.4494957906637
7	103	25204.8	2.4790190524582
7	105	25204.9	2.508568365097
7	108	25205	2.5381442828531
7	110	25205.1	2.56774736
7	112	25205.2	2.5973781508109
7	114	25205.3	2.627037209559
7	116	25205.4	2.6567250905178
7	118	25205.5	2.6864423479603
7	120	25205.6	2.71618953616
7	122	25205.7	2.7459672093901
7	124	25205.8	2.7757759219238
7	126	25205.9	2.8056162280346
7	129	25206	2.8354886819955
7	131	25206.1	2.86539383808
7	133	25206.2	2.8953322505613
7	135	25206.3	2.9253044737126
7	137	25206.4	2.9553110618074
7	139	25206.5	2.9853525691187
7	141	25206.6	3.01542954992
7	143	25206.7	3.0455425584845
7	145	25206.8	3.0756921490854
7	147	25206.9	3.1058788759962
7	150	25207	3.1361032934899
7	152	25207.1	3.16636595584
7	154	25207.2	3.1966674173197
7	156	25207.3	3.2270082322022
7	158	25207.4	3.257388954761
7	160	25207.5	3.2878101392691
7	162	25207.6	3.31827234
7	164	25207.7	3.3487761112269
7	166	25207.8	3.379322007223
7	168	25207.9	3.4099105822617
7	171	25208	3.4405423906163
7	173	25208.1	3.47121798656
7	175	25208.2	3.5019379243661
7	177	25208.3	3.5327027583078
7	179	25208.4	3.5635130426585
7	181	25208.5	3.5943693316915
7	183	25208.6	3.62527217968
7	185	25208.7	3.6562221408973
7	187	25208.8	3.6872197696166
7	189	25208.9	3.7182656201113
7	192	25209	0.973
7	194	25209.1	0.973
7	196	25209.2	0.973
7	198	25209.3	0.973
7	200	25209.4	0.973
7	202	25209.5	0.973
7	204	25209.6	0.973
7	206	25209.7	0.973
7	208	25209.8	0.973
7	210	25209.9	0.973
7	213	25210	0.973
7	215	25210.1	0.973
7	217	25210.2	0.973
7	219	25210.3	0.973
7	221	25210.4	0.973
7	223	25210.5	0.973
7	225	25210.6	0.973
7	227	25210.7	0.973
7	229	25210.8	0.973
7	231	25210.9	0.973
7	234	25211	0.973
7	236	25211.1	0.973
7	238	25211.2	0.973
7	240	25211.3	0.973
7	242	25211.4	0.973
7	244	25211.5	0.973
7	246	25211.6	0.973
7	248	25211.7	0.973
7	250	25211.8	0.973
7	252	25211.9	0.973
7	255	25212	0.973
7	257	25212.1	0.973
7	259	25212.2	0.973
7	261	25212.3	0.973
7	263	25212.4	0.973
7	265	25212.5	0.973
7	267	25212.6	0.973
7	269	25212.7	0.973
7	271	25212.8	0.973
7	273	25212.9	0.973
7	276	25213	0.973
7	278	25213.1	0.973
7	280	25213.2	0.973
7	282	25213.3	0.973
7	284	25213.4	0.973
7	286	25213.5	0.973
7	288	25213.6	0.973
7	290	25213.7	0.973
7	292	25213.8	0.973
7	294	25213.9	0.973
7	297	25214	0.973
7	299	25214.1	0.973
7	301	25214.2	0.973
7	303	25214.3	0.973
7	305	25214.4	0.973
7	307	25214.5	0.973
7	309	25214.6	0.973
7	311	25214.7	0.973
7	313	25214.8	0.973
7	315	25214.9	0.973
7	318	25215	0.973
7	320	25215.1	0.973
7	322	25215.2	0.973
7	324	25215.3	0.973
7	326	25215.4	0.973
7	328	25215.5	0.973
7	330	25215.6	0.973
7	332	25215.7	0.973
7	334	25215.8	0.973
7	336	25215.9	0.973
7	339	25216	0.973
7	341	25216.1	0.973
7	343	25216.2	0.973
7	345	25216.3	0.973
7	347	25216.4	0.973
7	349	25216.5	0.973
7	351	25216.6	0.973
7	353	25216.7	0.973
7	355	25216.8	0.973
7	357	25216.9	0.973
7	360	25217	0.973
7	362	25217.1	0.973
7	364	25217.2	0.973
7	366	25217.3	0.973
7	368	25217.4	0.973
7	370	25217.5	0.973
7	372	25217.6	0.973
7	374	25217.7	0.973
7	376	25217.8	0.973
7	378	25217.9	0.973
7	381	25218	0.973
7	383	25218.1	0.973
7	385	25218.2	0.973
7	387	25218.3	0.973
7	389	25218.4	0.973
7	391	25218.5	0.973
7	393	25218.6	0.973
7	395	25218.7	0.973
7	397	25218.8	0.973
7	399	25218.9	0.973
7	402	25219	0.973
7	404	25219.1	0.973
7	406	25219.2	0.973
7	408	25219.3	0.973
7	410	25219.4	0.973
7	412	25219.5	0.973
7	414	25219.6	0.973
7	416	25219.7	0.973
7	418	25219.8	0.973
7	420	25219.9	0.973
7	423	25220	0.973
7	425	25220.1	0.973
7	427	25220.2	0.973
7	429	25220.3	0.973
7	431	25220.4	0.973
7	433	25220.5	0.973
7	435	25220.6	0.973
7	437	25220.7	0.973
7	439	25220.8	0.973
7	441	25220.9	0.973
7	444	25221	0.973
7	446	25221.1	0.973
7	448	25221.2	0.973
7	450	25221.3	0.973
7	452	25221.4	0.973
7	454	25221.5	0.973
7	456	25221.6	0.973
7	458	25221.7	0.973
7	460	25221.8	0.973
7	462	25221.9	0.973
7	465	25222	0.973
7	467	25222.1	0.973
7	469	25222.2	0.973
7	471	25222.3	0.973
7	473	25222.4	0.973
7	475	25222.5	0.973
7	477	25222.6	0.973
7	479	25222.7	0.973
7	481	25222.8	0.973
7	483	25222.9	0.973
7	486	25223	0.973
7	488	25223.1	0.973
7	490	25223.2	0.973
7	492	25223.3	0.973
7	494	25223.4	0.973
7	496	25223.5	0.973
7	498	25223.6	0.973
7	500	25223.7	0.973
7	502	25223.8	0.973
7	504	25223.9	0.973
7	507	25224	0.973
7	509	25224.1	0.973
7	511	25224.2	0.973
7	513	25224.3	0.973
7	515	25224.4	0.973
7	517	25224.5	0.973
7	519	25224.6	0.973
7	521	25224.7	0.973
7	523	25224.8	0.973
7	525	25224.9	0.973
7	528	25225	0.973
7	530	25225.1	0.973
7	532	25225.2	0.973
7	534	25225.3	0.973
7	536	25225.4	0.973
7	538	25225.5	0.973
7	540	25225.6	0.973
7	542	25225.7	0.973
7	544	25225.8	0.973
7	546	25225.9	0.973
7	549	25226	0.973
7	551	25226.1	0.973
7	553	25226.2	0.973
7	555	25226.3	0.973
7	557	25226.4	0.973
7	559	25226.5	0.973
7	561	25226.6	0.973
7	563	25226.7	0.973
7	565	25226.8	0.973
7	567	25226.9	0.973
7	570	25227	0.973
7	572	25227.1	0.973
7	574	25227.2	0.973
7	576	25227.3	0.973
7	578	25227.4	0.973
7	580	25227.5	0.973
7	582	25227.6	0.973
7	584	25227.7	0.973
7	586	25227.8	0.973
7	588	25227.9	0.973
7	591	25228	0.973
7	593	25228.1	0.973
7	595	25228.2	0.973
7	597	25228.3	0.973
7	599	25228.4	0.973
7	601	25228.5	0.973
7	603	25228.6	0.973
7	605	25228.7	0.973
7	607	25228.8	0.973
7	609	25228.9	0.973
7	612	25229	0.973
7	614	25229.1	0.973
7	616	25229.2	0.973
7	618	25229.3	0.973
7	620	25229.4	0.973
7	622	25229.5	0.973
7	624	25229.6	0.973
7	626	25229.7	0.973
7	628	25229.8	0.973
7	630	25229.9	0.973
7	633	25230	0.973
7	635	25230.1	0.973
7	637	25230.2	0.973
7	639	25230.3	0.973
7	641	25230.4	0.973
7	643	25230.5	0.973
7	645	25230.6	0.973
7	647	25230.7	0.973
7	649	25230.8	0.973
7	651	25230.9	0.973
7	654	25231	0.973
7	656	25231.1	0.973
7	658	25231.2	0.973
7	660	25231.3	0.973
7	662	25231.4	0.973
7	664	25231.5	0.973
7	666	25231.6	0.973
7	668	25231.7	0.973
7	670	25231.8	0.973
7	672	25231.9	0.973
7	675	25232	1.1389240923789
7	677	25232.1	1.167848739031
7	679	25232.2	1.1967744942298
7	681	25232.3	1.2257019122483
7	683	25232.4	1.25463154736
7	685	25232.5	1.2835639538381
7	687	25232.6	1.3124996859558
7	689	25232.7	1.3414392979866
7	691	25232.8	1.3703833442035
7	693	25232.9	1.39933237888
7	696	25233	1.4282869562893
7	698	25233.1	1.4572476307046
7	700	25233.2	1.4862149563994
7	702	25233.3	1.5151894876467
7	704	25233.4	1.54417177872
7	706	25233.5	1.5731623838925
7	708	25233.6	1.6021618574374
7	710	25233.7	1.6311707536282
7	712	25233.8	1.6601896267379
7	714	25233.9	1.68921903104
7	717	25234	1.7182595208077
7	719	25234.1	1.7473116503142
7	721	25234.2	1.776375973833
7	723	25234.3	1.8054530456371
7	725	25234.4	1.83454342
7	727	25234.5	1.8636476511949
7	729	25234.6	1.892766293495
7	731	25234.7	1.9218999011738
7	733	25234.8	1.9510490285043
7	735	25234.9	1.98021422976
7	738	25235	2.0093960592141
7	740	25235.1	2.0385950711398
7	742	25235.2	2.0678118198106
7	744	25235.3	2.0970468594995
7	746	25235.4	2.12630074448
7	748	25235.5	2.1555740290253
7	750	25235.6	2.1848672674086
7	752	25235.7	2.2141810139034
7	754	25235.8	2.2435158227827
7	756	25235.9	2.27287224832
7	759	25236	2.3022508447885
7	761	25236.1	2.3316521664614
7	763	25236.2	2.3610767676122
7	765	25236.3	2.3905252025139
7	767	25236.4	2.41999802544
7	769	25236.5	2.4494957906637
7	771	25236.6	2.4790190524582
7	773	25236.7	2.508568365097
7	775	25236.8	2.5381442828531
7	777	25236.9	2.56774736
7	780	25237	2.5973781508109
7	782	25237.1	2.627037209559
7	784	25237.2	2.6567250905178
7	786	25237.3	2.6864423479603
7	788	25237.4	2.71618953616
7	790	25237.5	2.7459672093901
7	792	25237.6	2.7757759219238
7	794	25237.7	2.8056162280346
7	796	25237.8	2.8354886819955
7	798	25237.9	2.86539383808
7	801	25238	2.8953322505613
7	803	25238.1	2.9253044737126
7	805	25238.2	2.9553110618074
7	807	25238.3	2.9853525691187
7	809	25238.4	3.01542954992
7	811	25238.5	3.0455425584845
7	813	25238.6	3.0756921490854
7	815	25238.7	3.1058788759962
7	817	25238.8	3.1361032934899
7	819	25238.9	3.16636595584
7	822	25239	3.1966674173197
7	824	25239.1	3.2270082322022
7	826	25239.2	3.257388954761
7	828	25239.3	3.2878101392691
7	830	25239.4	3.31827234
7	832	25239.5	3.3487761112269
7	834	25239.6	3.379322007223
7	836	25239.7	3.4099105822617
7	838	25239.8	3.4405423906163
7	840	25239.9	3.47121798656
7	843	25240	3.5019379243661
7	845	25240.1	3.5327027583078
7	847	25240.2	3.5635130426585
7	849	25240.3	3.5943693316915
7	851	25240.4	3.62527217968
7	853	25240.5	3.6562221408973
7	855	25240.6	3.6872197696166
7	857	25240.7	3.7182656201113
7	859	25240.8	3.7493602466547
7	861	25240.9	3.78050420352
7	864	25241	3.8116980449805
7	866	25241.1	3.8429423253094
7	870	25241.2	3.8742375987801
7	872	25241.3	3.9055844196659
7	874	25241.4	3.93698334224
7	876	25241.5	3.9684349207757
7	878	25241.6	3.9999397095462
7	880	25241.7	4.0314982628249
7	882	25241.8	4.0631111348851
7	884	25241.9	4.09477888
7	887	25242	4.1265020524429
7	889	25242.1	4.158281206487
7	891	25242.2	4.1901168964057
7	893	25242.3	4.2220096764723
7	895	25242.4	4.25396010096
7	897	25242.5	4.2859687241421
7	899	25242.6	4.3180361002918
7	901	25242.7	4.3501627836825
7	903	25242.8	4.3823493285875
7	905	25242.9	4.41459628928
7	909	25243	4.4469042200333
7	911	25243.1	4.4792736751206
7	915	25243.2	4.5117052088153
7	917	25243.3	4.5441993753907
7	919	25243.4	4.57675672912
7	921	25243.5	4.6093778242765
7	923	25243.6	4.6420632151334
7	925	25243.7	4.6748134559641
7	927	25243.8	4.7076291010419
7	929	25243.9	4.74051070464
7	933	25244	4.7734588210317
7	935	25244.1	4.8064740044902
7	939	25244.2	4.8395568092889
7	941	25244.3	4.8727077897011
7	943	25244.4	4.9059275
7	945	25244.5	4.9392164944589
7	947	25244.6	4.972575327351
7	949	25244.7	5.0060045529497
7	951	25244.8	5.0395047255283
7	953	25244.9	5.07307639936
7	956	25245	5.1067201287181
7	958	25245.1	5.1404364678758
7	960	25245.2	5.1742259711065
7	962	25245.3	5.2080891926835
7	964	25245.4	5.24202668688
7	966	25245.5	5.2760390079693
7	968	25245.6	5.3101267102246
7	970	25245.7	5.3442903479193
7	972	25245.8	5.0403540047533
7	974	25245.9	2.0276130047521
7	977	25246	2.0276130047521
7	979	25246.1	2.0276130047521
7	981	25246.2	2.0276130047521
7	983	25246.3	2.0276130047521
7	985	25246.4	2.0276130047521
7	987	25246.5	2.0276130047521
7	989	25246.6	2.0276130047521
7	991	25246.7	2.0276130047521
7	993	25246.8	2.0276130047521
7	995	25246.9	2.0276130047521
7	998	25247	2.0276130047521
7	1000	25247.1	2.0276130047521
7	1002	25247.2	2.0276130047521
7	1004	25247.3	2.0276130047521
7	1006	25247.4	2.0276130047521
7	1008	25247.5	2.0276130047521
7	1010	25247.6	2.0276130047521
7	1012	25247.7	2.0276130047521
7	1014	25247.8	2.0276130047521
7	1016	25247.9	2.0276130047521
7	1020	25248	2.0276130047521
7	1022	25248.1	2.0276130047521
7	1026	25248.2	2.0276130047521
7	1028	25248.3	2.0276130047521
7	1030	25248.4	2.0276130047521
7	1032	25248.5	2.0276130047521
7	1034	25248.6	2.0276130047521
7	1036	25248.7	2.0276130047521
7	1038	25248.8	2.0276130047521
7	1040	25248.9	2.0276130047521
7	1043	25249	2.0276130047521
7	1045	25249.1	2.0276130047521
7	1047	25249.2	2.0276130047521
7	1049	25249.3	2.0276130047521
7	1051	25249.4	2.0276130047521
7	1053	25249.5	2.0276130047521
7	1055	25249.6	2.0276130047521
7	1057	25249.7	2.0276130047521
7	1059	25249.8	2.0276130047521
7	1061	25249.9	2.0276130047521
7	1064	25250	2.0276130047521
7	1066	25250.1	2.0276130047521
7	1068	25250.2	2.0276130047521
7	1070	25250.3	2.0276130047521
7	1072	25250.4	2.0276130047521
7	1074	25250.5	2.0276130047521
7	1076	25250.6	2.0276130047521
7	1078	25250.7	2.0276130047521
7	1080	25250.8	2.0276130047521
7	1082	25250.9	2.0276130047521
7	1085	25251	2.0276130047521
7	1087	25251.1	2.0276130047521
7	1089	25251.2	2.0276130047521
7	1091	25251.3	2.0276130047521
7	1093	25251.4	2.0276130047521
7	1095	25251.5	2.0276130047521
7	1097	25251.6	2.0276130047521
7	1099	25251.7	2.0276130047521
7	1101	25251.8	2.0276130047521
7	1103	25251.9	2.0276130047521
7	1106	25252	2.0276130047521
7	1108	25252.1	2.0276130047521
7	1110	25252.2	2.0276130047521
7	1112	25252.3	2.0276130047521
7	1114	25252.4	2.0276130047521
7	1116	25252.5	2.0276130047521
7	1118	25252.6	2.0276130047521
7	1120	25252.7	2.0276130047521
7	1122	25252.8	2.0276130047521
7	1124	25252.9	2.0276130047521
7	1127	25253	2.0276130047521
7	1129	25253.1	2.0276130047521
7	1131	25253.2	2.0276130047521
7	1133	25253.3	2.0276130047521
7	1135	25253.4	2.0276130047521
7	1137	25253.5	2.0276130047521
7	1139	25253.6	2.0276130047521
7	1141	25253.7	2.0276130047521
7	1143	25253.8	2.0276130047521
7	1145	25253.9	2.0276130047521
7	1148	25254	2.0276130047521
7	1150	25254.1	2.0276130047521
7	1152	25254.2	2.0276130047521
7	1154	25254.3	2.0276130047521
7	1156	25254.4	2.0276130047521
7	1158	25254.5	2.0276130047521
7	1160	25254.6	2.0276130047521
7	1162	25254.7	2.0276130047521
7	1164	25254.8	2.0276130047521
7	1166	25254.9	2.0276130047521
7	1170	25255	2.0276130047521
7	1172	25255.1	2.0276130047521
7	1176	25255.2	2.0276130047521
7	1178	25255.3	2.0276130047521
7	1180	25255.4	2.0276130047521
7	1182	25255.5	2.0276130047521
7	1184	25255.6	2.0276130047521
7	1186	25255.7	2.0276130047521
7	1188	25255.8	2.0276130047521
7	1190	25255.9	2.0276130047521
7	1193	25256	2.0276130047521
7	1195	25256.1	2.0276130047521
7	1197	25256.2	2.0276130047521
7	1199	25256.3	2.0276130047521
7	1201	25256.4	2.0276130047521
7	1203	25256.5	2.0276130047521
7	1205	25256.6	2.0276130047521
7	1207	25256.7	2.0276130047521
7	1209	25256.8	2.0276130047521
7	1211	25256.9	2.0276130047521
7	1214	25257	2.0276130047521
7	1216	25257.1	2.0276130047521
7	1218	25257.2	2.0276130047521
7	1220	25257.3	2.0276130047521
7	1222	25257.4	2.0276130047521
7	1224	25257.5	2.0276130047521
7	1226	25257.6	2.0276130047521
7	1228	25257.7	2.0276130047521
7	1230	25257.8	2.0276130047521
7	1232	25257.9	2.0276130047521
7	1236	25258	2.0276130047521
7	1238	25258.1	2.0276130047521
7	1242	25258.2	2.0276130047521
7	1244	25258.3	2.0276130047521
7	1246	25258.4	2.0276130047521
7	1248	25258.5	2.0276130047521
7	1250	25258.6	2.0276130047521
7	1252	25258.7	2.0276130047521
7	1254	25258.8	2.0276130047521
7	1256	25258.9	2.0276130047521
7	1259	25259	2.0276130047521
7	1261	25259.1	2.0276130047521
7	1263	25259.2	2.0276130047521
7	1265	25259.3	2.0276130047521
7	1267	25259.4	2.0276130047521
7	1269	25259.5	2.0276130047521
7	1271	25259.6	2.0276130047521
7	1273	25259.7	2.0276130047521
7	1275	25259.8	2.0276130047521
7	1277	25259.9	2.0276130047521
7	1280	25260	2.0276130047521
7	1282	25260.1	2.0276130047521
7	1284	25260.2	2.0276130047521
7	1286	25260.3	2.0276130047521
7	1288	25260.4	2.0276130047521
7	1290	25260.5	2.0276130047521
7	1292	25260.6	2.0276130047521
7	1294	25260.7	2.0276130047521
7	1296	25260.8	2.0276130047521
7	1298	25260.9	2.0276130047521
7	1302	25261	2.0276130047521
7	1304	25261.1	2.0276130047521
7	1308	25261.2	2.0276130047521
7	1310	25261.3	2.0276130047521
7	1312	25261.4	2.0276130047521
7	1314	25261.5	2.0276130047521
7	1316	25261.6	2.0276130047521
7	1318	25261.7	2.0276130047521
7	1320	25261.8	2.0276130047521
7	1322	25261.9	2.0276130047521
7	1325	25262	2.0276130047521
7	1327	25262.1	2.0276130047521
7	1329	25262.2	2.0276130047521
7	1331	25262.3	2.0276130047521
7	1333	25262.4	2.0276130047521
7	1335	25262.5	2.0276130047521
7	1337	25262.6	2.0276130047521
7	1339	25262.7	2.0276130047521
7	1341	25262.8	2.0276130047521
7	1343	25262.9	2.0276130047521
7	1346	25263	2.0276130047521
7	1348	25263.1	2.0276130047521
7	1350	25263.2	2.0276130047521
7	1352	25263.3	2.0276130047521
7	1354	25263.4	2.0276130047521
7	1356	25263.5	2.0276130047521
7	1358	25263.6	2.0276130047521
7	1360	25263.7	2.0276130047521
7	1362	25263.8	2.0276130047521
7	1364	25263.9	2.0276130047521
7	1367	25264	2.0276130047521
7	1369	25264.1	2.0276130047521
7	1371	25264.2	2.0276130047521
7	1373	25264.3	2.0276130047521
6	9	25200.3	1
6	11	25200.4	1
6	13	25200.5	1
6	15	25200.6	1
6	17	25200.7	1
6	19	25200.8	1
6	21	25200.9	1
6	24	25201	1
6	26	25201.1	1
6	28	25201.2	1
6	30	25201.3	1
6	32	25201.4	1
6	34	25201.5	1
6	36	25201.6	1
6	38	25201.7	1
6	40	25201.8	1
6	42	25201.9	1
6	45	25202	1
6	47	25202.1	1
6	49	25202.2	1
6	51	25202.3	1
6	53	25202.4	1
6	55	25202.5	1
6	57	25202.6	1
6	59	25202.7	1
6	61	25202.8	1
6	63	25202.9	1
6	66	25203	1
6	68	25203.1	1
6	70	25203.2	1
6	72	25203.3	1
6	74	25203.4	1
6	76	25203.5	1
6	78	25203.6	1
6	80	25203.7	1
6	82	25203.8	1
6	84	25203.9	1
6	87	25204	1
6	89	25204.1	1
6	91	25204.2	1
6	93	25204.3	1
6	95	25204.4	1
6	97	25204.5	1
6	99	25204.6	1
6	101	25204.7	1
6	103	25204.8	1
6	105	25204.9	1
6	108	25205	1
6	110	25205.1	1
6	112	25205.2	1
6	114	25205.3	1
6	116	25205.4	1
6	118	25205.5	1
6	120	25205.6	1
6	122	25205.7	1
6	124	25205.8	1
6	126	25205.9	1
6	129	25206	1
6	131	25206.1	1
6	133	25206.2	1
6	135	25206.3	1
6	137	25206.4	1
6	139	25206.5	1
6	141	25206.6	1
6	143	25206.7	1
6	145	25206.8	1
6	147	25206.9	1
6	150	25207	1
6	152	25207.1	1
6	154	25207.2	1
6	156	25207.3	1
6	158	25207.4	1
6	160	25207.5	1
6	162	25207.6	1
6	164	25207.7	1
6	166	25207.8	1
6	168	25207.9	1
6	171	25208	1
6	173	25208.1	1
6	175	25208.2	1
6	177	25208.3	1
6	179	25208.4	1
6	181	25208.5	1
6	183	25208.6	1
6	185	25208.7	1
6	187	25208.8	1
6	189	25208.9	1
6	192	25209	-2.0689655172411
6	194	25209.1	-3
6	196	25209.2	-3
6	198	25209.3	-3
6	200	25209.4	-3
6	202	25209.5	-3
6	204	25209.6	-3
6	206	25209.7	-3
6	208	25209.8	-3
6	210	25209.9	-3
6	213	25210	-3
6	215	25210.1	-3
6	217	25210.2	-3
6	219	25210.3	-3
6	221	25210.4	-3
6	223	25210.5	-3
6	225	25210.6	-3
6	227	25210.7	-3
6	229	25210.8	-3
6	231	25210.9	-3
6	234	25211	-3
6	236	25211.1	-3
6	238	25211.2	-3
6	240	25211.3	-3
6	242	25211.4	-3
6	244	25211.5	-3
6	246	25211.6	-3
6	248	25211.7	-3
6	250	25211.8	-3
6	252	25211.9	-1.9310344827588
6	255	25212	0
6	257	25212.1	0
6	259	25212.2	0
6	261	25212.3	0
6	263	25212.4	0
6	265	25212.5	0
6	267	25212.6	0
6	269	25212.7	0
6	271	25212.8	0
6	273	25212.9	0
6	276	25213	0
6	278	25213.1	0
6	280	25213.2	0
6	282	25213.3	0
6	284	25213.4	0
6	286	25213.5	0
6	288	25213.6	0
6	290	25213.7	0
6	292	25213.8	0
6	294	25213.9	0
6	297	25214	0
6	299	25214.1	0
6	301	25214.2	0
6	303	25214.3	0
6	305	25214.4	0
6	307	25214.5	0
6	309	25214.6	0
6	311	25214.7	0
6	313	25214.8	0
6	315	25214.9	0
6	318	25215	0
6	320	25215.1	0
6	322	25215.2	0
6	324	25215.3	0
6	326	25215.4	0
6	328	25215.5	0
6	330	25215.6	0
6	332	25215.7	0
6	334	25215.8	0
6	336	25215.9	0
6	339	25216	0
6	341	25216.1	0
6	343	25216.2	0
6	345	25216.3	0
6	347	25216.4	0
6	349	25216.5	0
6	351	25216.6	0
6	353	25216.7	0
6	355	25216.8	0
6	357	25216.9	0
6	360	25217	0
6	362	25217.1	0
6	364	25217.2	0
6	366	25217.3	0
6	368	25217.4	0
6	370	25217.5	0
6	372	25217.6	0
6	374	25217.7	0
6	376	25217.8	0
6	378	25217.9	0
6	381	25218	0
6	383	25218.1	0
6	385	25218.2	0
6	387	25218.3	0
6	389	25218.4	0
6	391	25218.5	0
6	393	25218.6	0
6	395	25218.7	0
6	397	25218.8	0
6	399	25218.9	0
6	402	25219	0
6	404	25219.1	0
6	406	25219.2	0
6	408	25219.3	0
6	410	25219.4	0
6	412	25219.5	0
6	414	25219.6	0
6	416	25219.7	0
6	418	25219.8	0
6	420	25219.9	0
6	423	25220	0
6	425	25220.1	0
6	427	25220.2	0
6	429	25220.3	0
6	431	25220.4	0
6	433	25220.5	0
6	435	25220.6	0
6	437	25220.7	0
6	439	25220.8	0
6	441	25220.9	0
6	444	25221	0
6	446	25221.1	0
6	448	25221.2	0
6	450	25221.3	0
6	452	25221.4	0
6	454	25221.5	0
6	456	25221.6	0
6	458	25221.7	0
6	460	25221.8	0
6	462	25221.9	0
6	465	25222	0
6	467	25222.1	0
6	469	25222.2	0
6	471	25222.3	0
6	473	25222.4	0
6	475	25222.5	0
6	477	25222.6	0
6	479	25222.7	0
6	481	25222.8	0
6	483	25222.9	0
6	486	25223	0
6	488	25223.1	0
6	490	25223.2	0
6	492	25223.3	0
6	494	25223.4	0
6	496	25223.5	0
6	498	25223.6	0
6	500	25223.7	0
6	502	25223.8	0
6	504	25223.9	0
6	507	25224	0
6	509	25224.1	0
6	511	25224.2	0
6	513	25224.3	0
6	515	25224.4	0
6	517	25224.5	0
6	519	25224.6	0
6	521	25224.7	0
6	523	25224.8	0
6	525	25224.9	0
6	528	25225	0
6	530	25225.1	0
6	532	25225.2	0
6	534	25225.3	0
6	536	25225.4	0
6	538	25225.5	0
6	540	25225.6	0
6	542	25225.7	0
6	544	25225.8	0
6	546	25225.9	0
6	549	25226	0
6	551	25226.1	0
6	553	25226.2	0
6	555	25226.3	0
6	557	25226.4	0
6	559	25226.5	0
6	561	25226.6	0
6	563	25226.7	0
6	565	25226.8	0
6	567	25226.9	0
6	570	25227	0
6	572	25227.1	0
6	574	25227.2	0
6	576	25227.3	0
6	578	25227.4	0
6	580	25227.5	0
6	582	25227.6	0
6	584	25227.7	0
6	586	25227.8	0
6	588	25227.9	0
6	591	25228	0
6	593	25228.1	0
6	595	25228.2	0
6	597	25228.3	0
6	599	25228.4	0
6	601	25228.5	0
6	603	25228.6	0
6	605	25228.7	0
6	607	25228.8	0
6	609	25228.9	0
6	612	25229	0
6	614	25229.1	0
6	616	25229.2	0
6	618	25229.3	0
6	620	25229.4	0
6	622	25229.5	0
6	624	25229.6	0
6	626	25229.7	0
6	628	25229.8	0
6	630	25229.9	0
6	633	25230	0
6	635	25230.1	0
6	637	25230.2	0
6	639	25230.3	0
6	641	25230.4	0
6	643	25230.5	0
6	645	25230.6	0
6	647	25230.7	0
6	649	25230.8	0
6	651	25230.9	0
6	654	25231	0
6	656	25231.1	0
6	658	25231.2	0
6	660	25231.3	0
6	662	25231.4	0
6	664	25231.5	0
6	666	25231.6	0
6	668	25231.7	0
6	670	25231.8	0
6	672	25231.9	0
6	675	25232	1
6	677	25232.1	1
6	679	25232.2	1
6	681	25232.3	1
6	683	25232.4	1
6	685	25232.5	1
6	687	25232.6	1
6	689	25232.7	1
6	691	25232.8	1
6	693	25232.9	1
6	696	25233	1
6	698	25233.1	1
6	700	25233.2	1
6	702	25233.3	1
6	704	25233.4	1
6	706	25233.5	1
6	708	25233.6	1
6	710	25233.7	1
6	712	25233.8	1
6	714	25233.9	1
6	717	25234	1
6	719	25234.1	1
6	721	25234.2	1
6	723	25234.3	1
6	725	25234.4	1
6	727	25234.5	1
6	729	25234.6	1
6	731	25234.7	1
6	733	25234.8	1
6	735	25234.9	1
6	738	25235	1
6	740	25235.1	1
6	742	25235.2	1
6	744	25235.3	1
6	746	25235.4	1
6	748	25235.5	1
6	750	25235.6	1
6	752	25235.7	1
6	754	25235.8	1
6	756	25235.9	1
6	759	25236	1
6	761	25236.1	1
6	763	25236.2	1
6	765	25236.3	1
6	767	25236.4	1
6	769	25236.5	1
6	771	25236.6	1
6	773	25236.7	1
6	775	25236.8	1
6	777	25236.9	1
6	780	25237	1
6	782	25237.1	1
6	784	25237.2	1
6	786	25237.3	1
6	788	25237.4	1
6	790	25237.5	1
6	792	25237.6	1
6	794	25237.7	1
6	796	25237.8	1
6	798	25237.9	1
6	801	25238	1
6	803	25238.1	1
6	805	25238.2	1
6	807	25238.3	1
6	809	25238.4	1
6	811	25238.5	1
6	813	25238.6	1
6	815	25238.7	1
6	817	25238.8	1
6	819	25238.9	1
6	822	25239	1
6	824	25239.1	1
6	826	25239.2	1
6	828	25239.3	1
6	830	25239.4	1
6	832	25239.5	1
6	834	25239.6	1
6	836	25239.7	1
6	838	25239.8	1
6	840	25239.9	1
6	843	25240	1
6	845	25240.1	1
6	847	25240.2	1
6	849	25240.3	1
6	851	25240.4	1
6	853	25240.5	1
6	855	25240.6	1
6	857	25240.7	1
6	859	25240.8	1
6	861	25240.9	1
6	864	25241	1
6	866	25241.1	1
6	870	25241.2	1
6	872	25241.3	1
6	874	25241.4	1
6	876	25241.5	1
6	878	25241.6	1
6	880	25241.7	1
6	882	25241.8	1
6	884	25241.9	1
6	887	25242	1
6	889	25242.1	1
6	891	25242.2	1
6	893	25242.3	1
6	895	25242.4	1
6	897	25242.5	1
6	899	25242.6	1
6	901	25242.7	1
6	903	25242.8	1
6	905	25242.9	1
6	909	25243	1
6	911	25243.1	1
6	915	25243.2	1
6	917	25243.3	1
6	919	25243.4	1
6	921	25243.5	1
6	923	25243.6	1
6	925	25243.7	1
6	927	25243.8	1
6	929	25243.9	1
6	933	25244	1
6	935	25244.1	1
6	939	25244.2	1
6	941	25244.3	1
6	943	25244.4	1
6	945	25244.5	1
6	947	25244.6	1
6	949	25244.7	1
6	951	25244.8	1
6	953	25244.9	1
6	956	25245	1
6	958	25245.1	1
6	960	25245.2	1
6	962	25245.3	1
6	964	25245.4	1
6	966	25245.5	1
6	968	25245.6	1
6	970	25245.7	1
6	972	25245.8	0.90000000000034
6	974	25245.9	0
6	977	25246	0
6	979	25246.1	0
6	981	25246.2	0
6	983	25246.3	0
6	985	25246.4	0
6	987	25246.5	0
6	989	25246.6	0
6	991	25246.7	0
6	993	25246.8	0
6	995	25246.9	0
6	998	25247	0
6	1000	25247.1	0
6	1002	25247.2	0
6	1004	25247.3	0
6	1006	25247.4	0
6	1008	25247.5	0
6	1010	25247.6	0
6	1012	25247.7	0
6	1014	25247.8	0
6	1016	25247.9	0
6	1020	25248	0
6	1022	25248.1	0
6	1026	25248.2	0
6	1028	25248.3	0
6	1030	25248.4	0
6	1032	25248.5	0
6	1034	25248.6	0
6	1036	25248.7	0
6	1038	25248.8	0
6	1040	25248.9	0
6	1043	25249	0
6	1045	25249.1	0
6	1047	25249.2	0
6	1049	25249.3	0
6	1051	25249.4	0
6	1053	25249.5	0
6	1055	25249.6	0
6	1057	25249.7	0
6	1059	25249.8	0
6	1061	25249.9	0
6	1064	25250	0
6	1066	25250.1	0
6	1068	25250.2	0
6	1070	25250.3	0
6	1072	25250.4	0
6	1074	25250.5	0
6	1076	25250.6	0
6	1078	25250.7	0
6	1080	25250.8	0
6	1082	25250.9	0
6	1085	25251	0
6	1087	25251.1	0
6	1089	25251.2	0
6	1091	25251.3	0
6	1093	25251.4	0
6	1095	25251.5	0
6	1097	25251.6	0
6	1099	25251.7	0
6	1101	25251.8	0
6	1103	25251.9	0
6	1106	25252	0
6	1108	25252.1	0
6	1110	25252.2	0
6	1112	25252.3	0
6	1114	25252.4	0
6	1116	25252.5	0
6	1118	25252.6	0
6	1120	25252.7	0
6	1122	25252.8	0
6	1124	25252.9	0
6	1127	25253	0
6	1129	25253.1	0
6	1131	25253.2	0
6	1133	25253.3	0
6	1135	25253.4	0
6	1137	25253.5	0
6	1139	25253.6	0
6	1141	25253.7	0
6	1143	25253.8	0
6	1145	25253.9	0
6	1148	25254	0
6	1150	25254.1	0
6	1152	25254.2	0
6	1154	25254.3	0
6	1156	25254.4	0
6	1158	25254.5	0
6	1160	25254.6	0
6	1162	25254.7	0
6	1164	25254.8	0
6	1166	25254.9	0
6	1170	25255	0
6	1172	25255.1	0
6	1176	25255.2	0
6	1178	25255.3	0
6	1180	25255.4	0
6	1182	25255.5	0
6	1184	25255.6	0
6	1186	25255.7	0
6	1188	25255.8	0
6	1190	25255.9	0
6	1193	25256	0
6	1195	25256.1	0
6	1197	25256.2	0
6	1199	25256.3	0
6	1201	25256.4	0
6	1203	25256.5	0
6	1205	25256.6	0
6	1207	25256.7	0
6	1209	25256.8	0
6	1211	25256.9	0
6	1214	25257	0
6	1216	25257.1	0
6	1218	25257.2	0
6	1220	25257.3	0
6	1222	25257.4	0
6	1224	25257.5	0
6	1226	25257.6	0
6	1228	25257.7	0
6	1230	25257.8	0
6	1232	25257.9	0
6	1236	25258	0
6	1238	25258.1	0
6	1242	25258.2	0
6	1244	25258.3	0
6	1246	25258.4	0
6	1248	25258.5	0
6	1250	25258.6	0
6	1252	25258.7	0
6	1254	25258.8	0
6	1256	25258.9	0
6	1259	25259	0
6	1261	25259.1	0
6	1263	25259.2	0
6	1265	25259.3	0
6	1267	25259.4	0
6	1269	25259.5	0
6	1271	25259.6	0
6	1273	25259.7	0
6	1275	25259.8	0
6	1277	25259.9	0
6	1280	25260	0
6	1282	25260.1	0
6	1284	25260.2	0
6	1286	25260.3	0
6	1288	25260.4	0
6	1290	25260.5	0
6	1292	25260.6	0
6	1294	25260.7	0
6	1296	25260.8	0
6	1298	25260.9	0
6	1302	25261	0
6	1304	25261.1	0
6	1308	25261.2	0
6	1310	25261.3	0
6	1312	25261.4	0
6	1314	25261.5	0
6	1316	25261.6	0
6	1318	25261.7	0
6	1320	25261.8	0
6	1322	25261.9	0
6	1325	25262	0
6	1327	25262.1	0
6	1329	25262.2	0
6	1331	25262.3	0
6	1333	25262.4	0
6	1335	25262.5	0
6	1337	25262.6	0
6	1339	25262.7	0
6	1341	25262.8	0
6	1343	25262.9	0
6	1346	25263	0
6	1348	25263.1	0
6	1350	25263.2	0
6	1352	25263.3	0
6	1354	25263.4	0
6	1356	25263.5	0
6	1358	25263.6	0
6	1360	25263.7	0
6	1362	25263.8	0
6	1364	25263.9	0
6	1367	25264	0
6	1369	25264.1	0
6	1371	25264.2	0
6	1373	25264.3	0
4	7	25200.2	0.1
4	9	25200.3	0.2
4	11	25200.4	0.3
4	13	25200.5	0.4
4	15	25200.6	0.5
4	17	25200.7	0.6
4	19	25200.8	0.7
4	21	25200.9	0.8
4	24	25201	0.9
4	26	25201.1	1
4	28	25201.2	1.1
4	30	25201.3	1.2
4	32	25201.4	1.3
4	34	25201.5	1.4
4	36	25201.6	1.5
4	38	25201.7	1.6
4	40	25201.8	1.7
4	42	25201.9	1.8
4	45	25202	1.9
4	47	25202.1	2
4	49	25202.2	2.1
4	51	25202.3	2.2
4	53	25202.4	2.3
4	55	25202.5	2.4
4	57	25202.6	2.5
4	59	25202.7	2.6
4	61	25202.8	2.7
4	63	25202.9	2.8
4	66	25203	2.9
4	68	25203.1	3
4	70	25203.2	3.1
4	72	25203.3	3.2
4	74	25203.4	3.3
4	76	25203.5	3.4
4	78	25203.6	3.5
4	80	25203.7	3.6
4	82	25203.8	3.7
4	84	25203.9	3.8
4	87	25204	3.9
4	89	25204.1	4
4	91	25204.2	4.1
4	93	25204.3	4.2
4	95	25204.4	4.3
4	97	25204.5	4.4
4	99	25204.6	4.5
4	101	25204.7	4.6
4	103	25204.8	4.7
4	105	25204.9	4.8
4	108	25205	4.9
4	110	25205.1	5
4	112	25205.2	5.1
4	114	25205.3	5.2
4	116	25205.4	5.3
4	118	25205.5	5.4
4	120	25205.6	5.5
4	122	25205.7	5.6
4	124	25205.8	5.7
4	126	25205.9	5.8
4	129	25206	5.9
4	131	25206.1	6
4	133	25206.2	6.1
4	135	25206.3	6.2
4	137	25206.4	6.3
4	139	25206.5	6.4
4	141	25206.6	6.5
4	143	25206.7	6.6
4	145	25206.8	6.7
4	147	25206.9	6.8
4	150	25207	6.9
4	152	25207.1	7
4	154	25207.2	7.1
4	156	25207.3	7.2
4	158	25207.4	7.3
4	160	25207.5	7.4
4	162	25207.6	7.5
4	164	25207.7	7.6
4	166	25207.8	7.7
4	168	25207.9	7.8
4	171	25208	7.9
4	173	25208.1	8
4	175	25208.2	8.1
4	177	25208.3	8.2
4	179	25208.4	8.3
4	181	25208.5	8.4
4	183	25208.6	8.5
4	185	25208.7	8.6
4	187	25208.8	8.7
4	189	25208.9	8.8
4	192	25209	8.5931034482759
4	194	25209.1	8.2931034482759
4	196	25209.2	7.9931034482759
4	198	25209.3	7.6931034482759
4	200	25209.4	7.3931034482759
4	202	25209.5	7.0931034482759
4	204	25209.6	6.7931034482759
4	206	25209.7	6.4931034482759
4	208	25209.8	6.1931034482759
4	210	25209.9	5.8931034482759
4	213	25210	5.5931034482759
4	215	25210.1	5.2931034482759
4	217	25210.2	4.9931034482759
4	219	25210.3	4.6931034482759
4	221	25210.4	4.3931034482759
4	223	25210.5	4.0931034482759
4	225	25210.6	3.7931034482759
4	227	25210.7	3.4931034482759
4	229	25210.8	3.1931034482759
4	231	25210.9	2.8931034482759
4	234	25211	2.5931034482759
4	236	25211.1	2.2931034482759
4	238	25211.2	1.9931034482759
4	240	25211.3	1.6931034482759
4	242	25211.4	1.3931034482759
4	244	25211.5	1.0931034482759
4	246	25211.6	0.79310344827588
4	248	25211.7	0.49310344827588
4	250	25211.8	0.19310344827588
4	252	25211.9	0
4	255	25212	0
4	257	25212.1	0
4	259	25212.2	0
4	261	25212.3	0
4	263	25212.4	0
4	265	25212.5	0
4	267	25212.6	0
4	269	25212.7	0
4	271	25212.8	0
4	273	25212.9	0
4	276	25213	0
4	278	25213.1	0
4	280	25213.2	0
4	282	25213.3	0
4	284	25213.4	0
4	286	25213.5	0
4	288	25213.6	0
4	290	25213.7	0
4	292	25213.8	0
4	294	25213.9	0
4	297	25214	0
4	299	25214.1	0
4	301	25214.2	0
4	303	25214.3	0
4	305	25214.4	0
4	307	25214.5	0
4	309	25214.6	0
4	311	25214.7	0
4	313	25214.8	0
4	315	25214.9	0
4	318	25215	0
4	320	25215.1	0
4	322	25215.2	0
4	324	25215.3	0
4	326	25215.4	0
4	328	25215.5	0
4	330	25215.6	0
4	332	25215.7	0
4	334	25215.8	0
4	336	25215.9	0
4	339	25216	0
4	341	25216.1	0
4	343	25216.2	0
4	345	25216.3	0
4	347	25216.4	0
4	349	25216.5	0
4	351	25216.6	0
4	353	25216.7	0
4	355	25216.8	0
4	357	25216.9	0
4	360	25217	0
4	362	25217.1	0
4	364	25217.2	0
4	366	25217.3	0
4	368	25217.4	0
4	370	25217.5	0
4	372	25217.6	0
4	374	25217.7	0
4	376	25217.8	0
4	378	25217.9	0
4	381	25218	0
4	383	25218.1	0
4	385	25218.2	0
4	387	25218.3	0
4	389	25218.4	0
4	391	25218.5	0
4	393	25218.6	0
4	395	25218.7	0
4	397	25218.8	0
4	399	25218.9	0
4	402	25219	0
4	404	25219.1	0
4	406	25219.2	0
4	408	25219.3	0
4	410	25219.4	0
4	412	25219.5	0
4	414	25219.6	0
4	416	25219.7	0
4	418	25219.8	0
4	420	25219.9	0
4	423	25220	0
4	425	25220.1	0
4	427	25220.2	0
4	429	25220.3	0
4	431	25220.4	0
4	433	25220.5	0
4	435	25220.6	0
4	437	25220.7	0
4	439	25220.8	0
4	441	25220.9	0
4	444	25221	0
4	446	25221.1	0
4	448	25221.2	0
4	450	25221.3	0
4	452	25221.4	0
4	454	25221.5	0
4	456	25221.6	0
4	458	25221.7	0
4	460	25221.8	0
4	462	25221.9	0
4	465	25222	0
4	467	25222.1	0
4	469	25222.2	0
4	471	25222.3	0
4	473	25222.4	0
4	475	25222.5	0
4	477	25222.6	0
4	479	25222.7	0
4	481	25222.8	0
4	483	25222.9	0
4	486	25223	0
4	488	25223.1	0
4	490	25223.2	0
4	492	25223.3	0
4	494	25223.4	0
4	496	25223.5	0
4	498	25223.6	0
4	500	25223.7	0
4	502	25223.8	0
4	504	25223.9	0
4	507	25224	0
4	509	25224.1	0
4	511	25224.2	0
4	513	25224.3	0
4	515	25224.4	0
4	517	25224.5	0
4	519	25224.6	0
4	521	25224.7	0
4	523	25224.8	0
4	525	25224.9	0
4	528	25225	0
4	530	25225.1	0
4	532	25225.2	0
4	534	25225.3	0
4	536	25225.4	0
4	538	25225.5	0
4	540	25225.6	0
4	542	25225.7	0
4	544	25225.8	0
4	546	25225.9	0
4	549	25226	0
4	551	25226.1	0
4	553	25226.2	0
4	555	25226.3	0
4	557	25226.4	0
4	559	25226.5	0
4	561	25226.6	0
4	563	25226.7	0
4	565	25226.8	0
4	567	25226.9	0
4	570	25227	0
4	572	25227.1	0
4	574	25227.2	0
4	576	25227.3	0
4	578	25227.4	0
4	580	25227.5	0
4	582	25227.6	0
4	584	25227.7	0
4	586	25227.8	0
4	588	25227.9	0
4	591	25228	0
4	593	25228.1	0
4	595	25228.2	0
4	597	25228.3	0
4	599	25228.4	0
4	601	25228.5	0
4	603	25228.6	0
4	605	25228.7	0
4	607	25228.8	0
4	609	25228.9	0
4	612	25229	0
4	614	25229.1	0
4	616	25229.2	0
4	618	25229.3	0
4	620	25229.4	0
4	622	25229.5	0
4	624	25229.6	0
4	626	25229.7	0
4	628	25229.8	0
4	630	25229.9	0
4	633	25230	0
4	635	25230.1	0
4	637	25230.2	0
4	639	25230.3	0
4	641	25230.4	0
4	643	25230.5	0
4	645	25230.6	0
4	647	25230.7	0
4	649	25230.8	0
4	651	25230.9	0
4	654	25231	0
4	656	25231.1	0
4	658	25231.2	0
4	660	25231.3	0
4	662	25231.4	0
4	664	25231.5	0
4	666	25231.6	0
4	668	25231.7	0
4	670	25231.8	0
4	672	25231.9	0
4	675	25232	0.1
4	677	25232.1	0.2
4	679	25232.2	0.3
4	681	25232.3	0.4
4	683	25232.4	0.5
4	685	25232.5	0.6
4	687	25232.6	0.7
4	689	25232.7	0.8
4	691	25232.8	0.9
4	693	25232.9	1
4	696	25233	1.1
4	698	25233.1	1.2
4	700	25233.2	1.3
4	702	25233.3	1.4
4	704	25233.4	1.5
4	706	25233.5	1.6
4	708	25233.6	1.7
4	710	25233.7	1.8
4	712	25233.8	1.9
4	714	25233.9	2
4	717	25234	2.1
4	719	25234.1	2.2
4	721	25234.2	2.3
4	723	25234.3	2.4
4	725	25234.4	2.5
4	727	25234.5	2.6
4	729	25234.6	2.7
4	731	25234.7	2.8
4	733	25234.8	2.9
4	735	25234.9	3
4	738	25235	3.1
4	740	25235.1	3.2
4	742	25235.2	3.3
4	744	25235.3	3.4
4	746	25235.4	3.5
4	748	25235.5	3.6
4	750	25235.6	3.7
4	752	25235.7	3.8
4	754	25235.8	3.9
4	756	25235.9	4
4	759	25236	4.1
4	761	25236.1	4.2
4	763	25236.2	4.3
4	765	25236.3	4.4
4	767	25236.4	4.5
4	769	25236.5	4.6
4	771	25236.6	4.7
4	773	25236.7	4.8
4	775	25236.8	4.9
4	777	25236.9	5
4	780	25237	5.1
4	782	25237.1	5.2
4	784	25237.2	5.3
4	786	25237.3	5.4
4	788	25237.4	5.5
4	790	25237.5	5.6
4	792	25237.6	5.7
4	794	25237.7	5.8
4	796	25237.8	5.9
4	798	25237.9	6
4	801	25238	6.1
4	803	25238.1	6.2
4	805	25238.2	6.3
4	807	25238.3	6.4
4	809	25238.4	6.5
4	811	25238.5	6.6
4	813	25238.6	6.7
4	815	25238.7	6.8
4	817	25238.8	6.9
4	819	25238.9	7
4	822	25239	7.1
4	824	25239.1	7.2
4	826	25239.2	7.3
4	828	25239.3	7.4
4	830	25239.4	7.5
4	832	25239.5	7.6
4	834	25239.6	7.7
4	836	25239.7	7.8
4	838	25239.8	7.9
4	840	25239.9	8
4	843	25240	8.1
4	845	25240.1	8.2
4	847	25240.2	8.3
4	849	25240.3	8.4
4	851	25240.4	8.5
4	853	25240.5	8.6
4	855	25240.6	8.7
4	857	25240.7	8.8
4	859	25240.8	8.9
4	861	25240.9	9
4	864	25241	9.1
4	866	25241.1	9.2
4	870	25241.2	9.3
4	872	25241.3	9.4
4	874	25241.4	9.5
4	876	25241.5	9.6
4	878	25241.6	9.7
4	880	25241.7	9.8
4	882	25241.8	9.9
4	884	25241.9	10
4	887	25242	10.1
4	889	25242.1	10.2
4	891	25242.2	10.3
4	893	25242.3	10.4
4	895	25242.4	10.5
4	897	25242.5	10.6
4	899	25242.6	10.7
4	901	25242.7	10.8
4	903	25242.8	10.9
4	905	25242.9	11
4	909	25243	11.1
4	911	25243.1	11.2
4	915	25243.2	11.3
4	917	25243.3	11.4
4	919	25243.4	11.5
4	921	25243.5	11.6
4	923	25243.6	11.7
4	925	25243.7	11.8
4	927	25243.8	11.9
4	929	25243.9	12
4	933	25244	12.1
4	935	25244.1	12.2
4	939	25244.2	12.3
4	941	25244.3	12.4
4	943	25244.4	12.5
4	945	25244.5	12.6
4	947	25244.6	12.7
4	949	25244.7	12.8
4	951	25244.8	12.9
4	953	25244.9	13
4	956	25245	13.1
4	958	25245.1	13.2
4	960	25245.2	13.3
4	962	25245.3	13.4
4	964	25245.4	13.5
4	966	25245.5	13.6
4	968	25245.6	13.7
4	970	25245.7	13.8
4	972	25245.8	13.89
4	974	25245.9	13.89
4	977	25246	13.89
4	979	25246.1	13.89
4	981	25246.2	13.89
4	983	25246.3	13.89
4	985	25246.4	13.89
4	987	25246.5	13.89
4	989	25246.6	13.89
4	991	25246.7	13.89
4	993	25246.8	13.89
4	995	25246.9	13.89
4	998	25247	13.89
4	1000	25247.1	13.89
4	1002	25247.2	13.89
4	1004	25247.3	13.89
4	1006	25247.4	13.89
4	1008	25247.5	13.89
4	1010	25247.6	13.89
4	1012	25247.7	13.89
4	1014	25247.8	13.89
4	1016	25247.9	13.89
4	1020	25248	13.89
4	1022	25248.1	13.89
4	1026	25248.2	13.89
4	1028	25248.3	13.89
4	1030	25248.4	13.89
4	1032	25248.5	13.89
4	1034	25248.6	13.89
4	1036	25248.7	13.89
4	1038	25248.8	13.89
4	1040	25248.9	13.89
4	1043	25249	13.89
4	1045	25249.1	13.89
4	1047	25249.2	13.89
4	1049	25249.3	13.89
4	1051	25249.4	13.89
4	1053	25249.5	13.89
4	1055	25249.6	13.89
4	1057	25249.7	13.89
4	1059	25249.8	13.89
4	1061	25249.9	13.89
4	1064	25250	13.89
4	1066	25250.1	13.89
4	1068	25250.2	13.89
4	1070	25250.3	13.89
4	1072	25250.4	13.89
4	1074	25250.5	13.89
4	1076	25250.6	13.89
4	1078	25250.7	13.89
4	1080	25250.8	13.89
4	1082	25250.9	13.89
4	1085	25251	13.89
4	1087	25251.1	13.89
4	1089	25251.2	13.89
4	1091	25251.3	13.89
4	1093	25251.4	13.89
4	1095	25251.5	13.89
4	1097	25251.6	13.89
4	1099	25251.7	13.89
4	1101	25251.8	13.89
4	1103	25251.9	13.89
4	1106	25252	13.89
4	1108	25252.1	13.89
4	1110	25252.2	13.89
4	1112	25252.3	13.89
4	1114	25252.4	13.89
4	1116	25252.5	13.89
4	1118	25252.6	13.89
4	1120	25252.7	13.89
4	1122	25252.8	13.89
4	1124	25252.9	13.89
4	1127	25253	13.89
4	1129	25253.1	13.89
4	1131	25253.2	13.89
4	1133	25253.3	13.89
4	1135	25253.4	13.89
4	1137	25253.5	13.89
4	1139	25253.6	13.89
4	1141	25253.7	13.89
4	1143	25253.8	13.89
4	1145	25253.9	13.89
4	1148	25254	13.89
4	1150	25254.1	13.89
4	1152	25254.2	13.89
4	1154	25254.3	13.89
4	1156	25254.4	13.89
4	1158	25254.5	13.89
4	1160	25254.6	13.89
4	1162	25254.7	13.89
4	1164	25254.8	13.89
4	1166	25254.9	13.89
4	1170	25255	13.89
4	1172	25255.1	13.89
4	1176	25255.2	13.89
4	1178	25255.3	13.89
4	1180	25255.4	13.89
4	1182	25255.5	13.89
4	1184	25255.6	13.89
4	1186	25255.7	13.89
4	1188	25255.8	13.89
4	1190	25255.9	13.89
4	1193	25256	13.89
4	1195	25256.1	13.89
4	1197	25256.2	13.89
4	1199	25256.3	13.89
4	1201	25256.4	13.89
4	1203	25256.5	13.89
4	1205	25256.6	13.89
4	1207	25256.7	13.89
4	1209	25256.8	13.89
4	1211	25256.9	13.89
4	1214	25257	13.89
4	1216	25257.1	13.89
4	1218	25257.2	13.89
4	1220	25257.3	13.89
4	1222	25257.4	13.89
4	1224	25257.5	13.89
4	1226	25257.6	13.89
4	1228	25257.7	13.89
4	1230	25257.8	13.89
4	1232	25257.9	13.89
4	1236	25258	13.89
4	1238	25258.1	13.89
4	1242	25258.2	13.89
4	1244	25258.3	13.89
4	1246	25258.4	13.89
4	1248	25258.5	13.89
4	1250	25258.6	13.89
4	1252	25258.7	13.89
4	1254	25258.8	13.89
4	1256	25258.9	13.89
4	1259	25259	13.89
4	1261	25259.1	13.89
4	1263	25259.2	13.89
4	1265	25259.3	13.89
4	1267	25259.4	13.89
4	1269	25259.5	13.89
4	1271	25259.6	13.89
4	1273	25259.7	13.89
4	1275	25259.8	13.89
4	1277	25259.9	13.89
4	1280	25260	13.89
4	1282	25260.1	13.89
4	1284	25260.2	13.89
4	1286	25260.3	13.89
4	1288	25260.4	13.89
4	1290	25260.5	13.89
4	1292	25260.6	13.89
4	1294	25260.7	13.89
4	1296	25260.8	13.89
4	1298	25260.9	13.89
4	1302	25261	13.89
4	1304	25261.1	13.89
4	1308	25261.2	13.89
4	1310	25261.3	13.89
4	1312	25261.4	13.89
4	1314	25261.5	13.89
4	1316	25261.6	13.89
4	1318	25261.7	13.89
4	1320	25261.8	13.89
4	1322	25261.9	13.89
4	1325	25262	13.89
4	1327	25262.1	13.89
4	1329	25262.2	13.89
4	1331	25262.3	13.89
4	1333	25262.4	13.89
4	1335	25262.5	13.89
4	1337	25262.6	13.89
4	1339	25262.7	13.89
4	1341	25262.8	13.89
4	1343	25262.9	13.89
4	1346	25263	13.89
4	1348	25263.1	13.89
4	1350	25263.2	13.89
4	1352	25263.3	13.89
4	1354	25263.4	13.89
4	1356	25263.5	13.89
4	1358	25263.6	13.89
4	1360	25263.7	13.89
4	1362	25263.8	13.89
4	1364	25263.9	13.89
4	1367	25264	13.89
4	1369	25264.1	13.89
4	1371	25264.2	13.89
4	1373	25264.3	13.89
1	5	25200.1	45.971552502633
1	7	25200.2	45.971552502633
1	9	25200.3	45.98056677517
1	11	25200.4	45.998595320245
1	13	25200.5	46.025638137857
1	15	25200.6	46.061695228007
1	17	25200.7	46.106766590694
1	19	25200.8	46.160852225918
1	21	25200.9	46.22395213368
1	24	25201	46.296066313979
1	26	25201.1	46.377194766815
1	28	25201.2	46.467337492189
1	30	25201.3	46.5664944901
1	32	25201.4	46.674665760549
1	34	25201.5	46.791851303535
1	36	25201.6	46.918051119059
1	38	25201.7	47.053265207119
1	40	25201.8	47.197493567718
1	42	25201.9	47.350736200853
1	45	25202	47.512993106526
1	47	25202.1	47.684264284736
1	49	25202.2	47.864549735484
1	51	25202.3	48.053849458769
1	53	25202.4	48.252163454592
1	55	25202.5	48.459491722952
1	57	25202.6	48.675834263849
1	59	25202.7	48.901191077284
1	61	25202.8	49.135562163256
1	63	25202.9	49.378947521765
1	66	25203	49.631347152812
1	68	25203.1	49.892761056396
1	70	25203.2	50.163189232518
1	72	25203.3	50.442631681177
1	74	25203.4	50.731088402373
1	76	25203.5	51.028559396107
1	78	25203.6	51.335044662378
1	80	25203.7	51.650544201187
1	82	25203.8	51.975058012533
1	84	25203.9	52.308586096416
1	87	25204	52.650165562914
1	89	25204.1	52.997549668874
1	91	25204.2	53.353841059603
1	93	25204.3	53.719039735099
1	95	25204.4	54.093145695364
1	97	25204.5	54.476158940397
1	99	25204.6	54.868079470199
1	101	25204.7	55.268907284768
1	103	25204.8	55.678642384106
1	105	25204.9	56.097284768212
1	108	25205	56.524834437086
1	110	25205.1	56.961291390729
1	112	25205.2	57.406655629139
1	114	25205.3	57.860927152318
1	116	25205.4	58.324105960265
1	118	25205.5	58.79619205298
1	120	25205.6	59.277185430464
1	122	25205.7	59.767086092715
1	124	25205.8	60.265894039735
1	126	25205.9	60.773758804684
1	129	25206	61.290959516127
1	131	25206.1	61.817077481216
1	133	25206.2	62.352112699951
1	135	25206.3	62.896065172331
1	137	25206.4	63.448934898357
1	139	25206.5	64.010721878028
1	141	25206.6	64.581426111345
1	143	25206.7	65.161047598308
1	145	25206.8	65.749586338916
1	147	25206.9	66.34704233317
1	150	25207	66.953415581069
1	152	25207.1	67.568706082614
1	154	25207.2	68.192913837804
1	156	25207.3	68.82603884664
1	158	25207.4	69.468081109122
1	160	25207.5	70.119040625249
1	162	25207.6	70.778917395021
1	164	25207.7	71.44771141844
1	166	25207.8	72.125422695504
1	168	25207.9	72.812051226213
1	171	25208	73.507597010568
1	173	25208.1	74.212060048569
1	175	25208.2	74.925440340215
1	177	25208.3	75.647737885507
1	179	25208.4	76.378132217274
1	181	25208.5	77.109457447392
1	183	25208.6	77.84959382486
1	185	25208.7	78.59854134968
1	187	25208.8	79.35630002185
1	189	25208.9	80.122869841371
1	192	25209	80.898250808243
1	194	25209.1	81.655401815078
1	196	25209.2	82.386119379861
1	198	25209.3	83.090403502592
1	200	25209.4	83.76825418327
1	202	25209.5	84.419671421896
1	204	25209.6	85.04465521847
1	206	25209.7	85.643205572991
1	208	25209.8	86.215322485459
1	210	25209.9	86.761005955875
1	213	25210	87.280255984239
1	215	25210.1	87.77307257055
1	217	25210.2	88.239455714809
1	219	25210.3	88.679405417015
1	221	25210.4	89.092921677169
1	223	25210.5	89.48000449527
1	225	25210.6	89.840653871319
1	227	25210.7	90.174869805315
1	229	25210.8	90.482652297259
1	231	25210.9	90.764001347151
1	234	25211	91.01891695499
1	236	25211.1	91.247399120777
1	238	25211.2	91.449447844511
1	240	25211.3	91.625063126193
1	242	25211.4	91.774244965822
1	244	25211.5	91.896993363399
1	246	25211.6	91.993308318923
1	248	25211.7	92.063189832395
1	250	25211.8	92.106637903815
1	252	25211.9	92.123652533182
1	255	25212	92.123652533182
1	257	25212.1	92.123652533182
1	259	25212.2	92.123652533182
1	261	25212.3	92.123652533182
1	263	25212.4	92.123652533182
1	265	25212.5	92.123652533182
1	267	25212.6	92.123652533182
1	269	25212.7	92.123652533182
1	271	25212.8	92.123652533182
1	273	25212.9	92.123652533182
1	276	25213	92.123652533182
1	278	25213.1	92.123652533182
1	280	25213.2	92.123652533182
1	282	25213.3	92.123652533182
1	284	25213.4	92.123652533182
1	286	25213.5	92.123652533182
1	288	25213.6	92.123652533182
1	290	25213.7	92.123652533182
1	292	25213.8	92.123652533182
1	294	25213.9	92.123652533182
1	297	25214	92.123652533182
1	299	25214.1	92.123652533182
1	301	25214.2	92.123652533182
1	303	25214.3	92.123652533182
1	305	25214.4	92.123652533182
1	307	25214.5	92.123652533182
1	309	25214.6	92.123652533182
1	311	25214.7	92.123652533182
1	313	25214.8	92.123652533182
1	315	25214.9	92.123652533182
1	318	25215	92.123652533182
1	320	25215.1	92.123652533182
1	322	25215.2	92.123652533182
1	324	25215.3	92.123652533182
1	326	25215.4	92.123652533182
1	328	25215.5	92.123652533182
1	330	25215.6	92.123652533182
1	332	25215.7	92.123652533182
1	334	25215.8	92.123652533182
1	336	25215.9	92.123652533182
1	339	25216	92.123652533182
1	341	25216.1	92.123652533182
1	343	25216.2	92.123652533182
1	345	25216.3	92.123652533182
1	347	25216.4	92.123652533182
1	349	25216.5	92.123652533182
1	351	25216.6	92.123652533182
1	353	25216.7	92.123652533182
1	355	25216.8	92.123652533182
1	357	25216.9	92.123652533182
1	360	25217	92.123652533182
1	362	25217.1	92.123652533182
1	364	25217.2	92.123652533182
1	366	25217.3	92.123652533182
1	368	25217.4	92.123652533182
1	370	25217.5	92.123652533182
1	372	25217.6	92.123652533182
1	374	25217.7	92.123652533182
1	376	25217.8	92.123652533182
1	378	25217.9	92.123652533182
1	381	25218	92.123652533182
1	383	25218.1	92.123652533182
1	385	25218.2	92.123652533182
1	387	25218.3	92.123652533182
1	389	25218.4	92.123652533182
1	391	25218.5	92.123652533182
1	393	25218.6	92.123652533182
1	395	25218.7	92.123652533182
1	397	25218.8	92.123652533182
1	399	25218.9	92.123652533182
1	402	25219	92.123652533182
1	404	25219.1	92.123652533182
1	406	25219.2	92.123652533182
1	408	25219.3	92.123652533182
1	410	25219.4	92.123652533182
1	412	25219.5	92.123652533182
1	414	25219.6	92.123652533182
1	416	25219.7	92.123652533182
1	418	25219.8	92.123652533182
1	420	25219.9	92.123652533182
1	423	25220	92.123652533182
1	425	25220.1	92.123652533182
1	427	25220.2	92.123652533182
1	429	25220.3	92.123652533182
1	431	25220.4	92.123652533182
1	433	25220.5	92.123652533182
1	435	25220.6	92.123652533182
1	437	25220.7	92.123652533182
1	439	25220.8	92.123652533182
1	441	25220.9	92.123652533182
1	444	25221	92.123652533182
1	446	25221.1	92.123652533182
1	448	25221.2	92.123652533182
1	450	25221.3	92.123652533182
1	452	25221.4	92.123652533182
1	454	25221.5	92.123652533182
1	456	25221.6	92.123652533182
1	458	25221.7	92.123652533182
1	460	25221.8	92.123652533182
1	462	25221.9	92.123652533182
1	465	25222	92.123652533182
1	467	25222.1	92.123652533182
1	469	25222.2	92.123652533182
1	471	25222.3	92.123652533182
1	473	25222.4	92.123652533182
1	475	25222.5	92.123652533182
1	477	25222.6	92.123652533182
1	479	25222.7	92.123652533182
1	481	25222.8	92.123652533182
1	483	25222.9	92.123652533182
1	486	25223	92.123652533182
1	488	25223.1	92.123652533182
1	490	25223.2	92.123652533182
1	492	25223.3	92.123652533182
1	494	25223.4	92.123652533182
1	496	25223.5	92.123652533182
1	498	25223.6	92.123652533182
1	500	25223.7	92.123652533182
1	502	25223.8	92.123652533182
1	504	25223.9	92.123652533182
1	507	25224	92.123652533182
1	509	25224.1	92.123652533182
1	511	25224.2	92.123652533182
1	513	25224.3	92.123652533182
1	515	25224.4	92.123652533182
1	517	25224.5	92.123652533182
1	519	25224.6	92.123652533182
1	521	25224.7	92.123652533182
1	523	25224.8	92.123652533182
1	525	25224.9	92.123652533182
1	528	25225	92.123652533182
1	530	25225.1	92.123652533182
1	532	25225.2	92.123652533182
1	534	25225.3	92.123652533182
1	536	25225.4	92.123652533182
1	538	25225.5	92.123652533182
1	540	25225.6	92.123652533182
1	542	25225.7	92.123652533182
1	544	25225.8	92.123652533182
1	546	25225.9	92.123652533182
1	549	25226	92.123652533182
1	551	25226.1	92.123652533182
1	553	25226.2	92.123652533182
1	555	25226.3	92.123652533182
1	557	25226.4	92.123652533182
1	559	25226.5	92.123652533182
1	561	25226.6	92.123652533182
1	563	25226.7	92.123652533182
1	565	25226.8	92.123652533182
1	567	25226.9	92.123652533182
1	570	25227	92.123652533182
1	572	25227.1	92.123652533182
1	574	25227.2	92.123652533182
1	576	25227.3	92.123652533182
1	578	25227.4	92.123652533182
1	580	25227.5	92.123652533182
1	582	25227.6	92.123652533182
1	584	25227.7	92.123652533182
1	586	25227.8	92.123652533182
1	588	25227.9	92.123652533182
1	591	25228	92.123652533182
1	593	25228.1	92.123652533182
1	595	25228.2	92.123652533182
1	597	25228.3	92.123652533182
1	599	25228.4	92.123652533182
1	601	25228.5	92.123652533182
1	603	25228.6	92.123652533182
1	605	25228.7	92.123652533182
1	607	25228.8	92.123652533182
1	609	25228.9	92.123652533182
1	612	25229	92.123652533182
1	614	25229.1	92.123652533182
1	616	25229.2	92.123652533182
1	618	25229.3	92.123652533182
1	620	25229.4	92.123652533182
1	622	25229.5	92.123652533182
1	624	25229.6	92.123652533182
1	626	25229.7	92.123652533182
1	628	25229.8	92.123652533182
1	630	25229.9	92.123652533182
1	633	25230	92.123652533182
1	635	25230.1	92.123652533182
1	637	25230.2	92.123652533182
1	639	25230.3	92.123652533182
1	641	25230.4	92.123652533182
1	643	25230.5	92.123652533182
1	645	25230.6	92.123652533182
1	647	25230.7	92.123652533182
1	649	25230.8	92.123652533182
1	651	25230.9	92.123652533182
1	654	25231	92.123652533182
1	656	25231.1	92.123652533182
1	658	25231.2	92.123652533182
1	660	25231.3	92.123652533182
1	662	25231.4	92.123652533182
1	664	25231.5	92.123652533182
1	666	25231.6	92.123652533182
1	668	25231.7	92.123652533182
1	670	25231.8	92.123652533182
1	672	25231.9	92.123652533182
1	675	25232	92.123652533182
1	677	25232.1	92.132463680533
1	679	25232.2	92.150085975234
1	681	25232.3	92.176519417287
1	683	25232.4	92.21176400669
1	685	25232.5	92.255819743444
1	687	25232.6	92.308686627549
1	689	25232.7	92.370364659005
1	691	25232.8	92.440853837811
1	693	25232.9	92.520154163969
1	696	25233	92.608265637477
1	698	25233.1	92.705188258336
1	700	25233.2	92.810922026546
1	702	25233.3	92.925466942106
1	704	25233.4	93.048823005018
1	706	25233.5	93.18099021528
1	708	25233.6	93.321968572893
1	710	25233.7	93.471758077857
1	712	25233.8	93.630358730172
1	714	25233.9	93.797770529837
1	717	25234	93.973993476853
1	719	25234.1	94.15902757122
1	721	25234.2	94.352872812938
1	723	25234.3	94.555529202007
1	725	25234.4	94.766996738427
1	727	25234.5	94.987275422197
1	729	25234.6	95.216365253318
1	731	25234.7	95.45426623179
1	733	25234.8	95.697931034483
1	735	25234.9	95.95136854979
1	738	25235	96.216434580645
1	740	25235.1	96.490336145862
1	742	25235.2	96.773073245441
1	744	25235.3	97.064645879382
1	746	25235.4	97.365054047685
1	748	25235.5	97.674297750349
1	750	25235.6	97.992376987376
1	752	25235.7	98.319291758764
1	754	25235.8	98.655042064514
1	756	25235.9	98.999627904626
1	759	25236	99.353049279099
1	761	25236.1	99.715306187935
1	763	25236.2	100.08639863113
1	765	25236.3	100.46632660869
1	767	25236.4	100.85509012061
1	769	25236.5	101.2526891669
1	771	25236.6	101.65912374754
1	773	25236.7	102.07439386255
1	775	25236.8	102.49849951192
1	777	25236.9	102.93144069565
1	780	25237	103.37321741374
1	782	25237.1	103.82382966619
1	784	25237.2	104.28327745301
1	786	25237.3	104.75156077419
1	788	25237.4	105.22867962973
1	790	25237.5	105.71463401963
1	792	25237.6	106.20942394389
1	794	25237.7	106.71304940252
1	796	25237.8	107.2255103955
1	798	25237.9	107.74680692285
1	801	25238	108.27693898456
1	803	25238.1	108.81432425758
1	805	25238.2	109.36009219634
1	807	25238.3	109.91466284379
1	809	25238.4	110.47803619994
1	811	25238.5	111.05021226477
1	813	25238.6	111.63119103829
1	815	25238.7	112.22097252051
1	817	25238.8	112.81955671141
1	819	25238.9	113.426943611
1	822	25239	114.04313321928
1	824	25239.1	114.66812553625
1	826	25239.2	115.30192056192
1	828	25239.3	115.94451829627
1	830	25239.4	116.59591873931
1	832	25239.5	117.26503653726
1	834	25239.6	117.94909824463
1	836	25239.7	118.64216076394
1	838	25239.8	119.34422409519
1	840	25239.9	120.05528823838
1	843	25240	120.77535319351
1	845	25240.1	121.50441896057
1	847	25240.2	122.24248553958
1	849	25240.3	122.99410831017
1	851	25240.4	123.76344616751
1	853	25240.5	124.54194280887
1	855	25240.6	125.32959823425
1	857	25240.7	126.12641244364
1	859	25240.8	126.93238543705
1	861	25240.9	127.74751721447
1	864	25241	128.57180777591
1	866	25241.1	129.40525712136
1	870	25241.2	130.24786525084
1	872	25241.3	131.09963216432
1	874	25241.4	131.96055786183
1	876	25241.5	132.84234085582
1	878	25241.6	133.73547184787
1	880	25241.7	134.63790628775
1	882	25241.8	135.54964417546
1	884	25241.9	136.47068551101
1	887	25242	137.40103029439
1	889	25242.1	138.34067852561
1	891	25242.2	139.28963020466
1	893	25242.3	140.24788533154
1	895	25242.4	141.21544390626
1	897	25242.5	142.19230592881
1	899	25242.6	143.19740835735
1	901	25242.7	144.21875496036
1	903	25242.8	145.24964685872
1	905	25242.9	146.29008405244
1	909	25243	147.34006654152
1	911	25243.1	148.39959432595
1	915	25243.2	149.46866740573
1	917	25243.3	150.54728578087
1	919	25243.4	151.64167859108
1	921	25243.5	152.76177352779
1	923	25243.6	153.89160842047
1	925	25243.7	155.03118326912
1	927	25243.8	156.18049807375
1	929	25243.9	157.33955283434
1	933	25244	158.50834755091
1	935	25244.1	159.68688222345
1	939	25244.2	160.87515685195
1	941	25244.3	162.07317143643
1	943	25244.4	163.28092597688
1	945	25244.5	164.49842047331
1	947	25244.6	165.7256549257
1	949	25244.7	166.96262933407
1	951	25244.8	168.2093436984
1	953	25244.9	169.46579801871
1	956	25245	170.73199229499
1	958	25245.1	172.00792652724
1	960	25245.2	173.29360071547
1	962	25245.3	174.58901485966
1	964	25245.4	175.89416895982
1	966	25245.5	177.20906301596
1	968	25245.6	178.53369702807
1	970	25245.7	179.86807099615
1	972	25245.8	181.2121849202
1	974	25245.9	182.56506480462
1	977	25246	183.91794468905
1	979	25246.1	185.27082457347
1	981	25246.2	186.6237044579
1	983	25246.3	187.97658434232
1	985	25246.4	189.32946422675
1	987	25246.5	190.68234411117
1	989	25246.6	192.0352239956
1	991	25246.7	193.38810388002
1	993	25246.8	194.74098376445
1	995	25246.9	196.09386364887
1	998	25247	197.4467435333
1	1000	25247.1	198.79962341772
1	1002	25247.2	200.15250330215
1	1004	25247.3	201.50538318657
1	1006	25247.4	202.858263071
1	1008	25247.5	204.21114295542
1	1010	25247.6	205.56402283985
1	1012	25247.7	206.91690272427
1	1014	25247.8	208.2697826087
1	1016	25247.9	209.62266249312
1	1020	25248	210.97554237755
1	1022	25248.1	212.32842226197
1	1026	25248.2	213.6813021464
1	1028	25248.3	215.03418203082
1	1030	25248.4	216.38706191524
1	1032	25248.5	217.73994179967
1	1034	25248.6	219.09282168409
1	1036	25248.7	220.44570156852
1	1038	25248.8	221.79858145294
1	1040	25248.9	223.3016176
1	1043	25249	224.6772832
1	1045	25249.1	226.0529488
1	1047	25249.2	227.4286144
1	1049	25249.3	228.80428
1	1051	25249.4	230.1799456
1	1053	25249.5	231.5556112
1	1055	25249.6	232.9312768
1	1057	25249.7	234.3069424
1	1059	25249.8	235.682608
1	1061	25249.9	237.0582736
1	1064	25250	238.4339392
1	1066	25250.1	239.8096048
1	1068	25250.2	241.1852704
1	1070	25250.3	242.560936
1	1072	25250.4	243.9366016
1	1074	25250.5	245.3122672
1	1076	25250.6	246.6879328
1	1078	25250.7	248.0635984
1	1080	25250.8	249.439264
1	1082	25250.9	250.8149296
1	1085	25251	252.1905952
1	1087	25251.1	253.5662608
1	1089	25251.2	254.9419264
1	1091	25251.3	256.317592
1	1093	25251.4	257.6932576
1	1095	25251.5	259.0689232
1	1097	25251.6	260.45737043478
1	1099	25251.7	261.85603304348
1	1101	25251.8	263.25469565217
1	1103	25251.9	264.65335826087
1	1106	25252	266.05202086957
1	1108	25252.1	267.45068347826
1	1110	25252.2	268.84934608696
1	1112	25252.3	270.24800869565
1	1114	25252.4	271.64355494359
1	1116	25252.5	273.03094509113
1	1118	25252.6	274.41833523866
1	1120	25252.7	275.80572538619
1	1122	25252.8	277.19311553373
1	1124	25252.9	278.58050568126
1	1127	25253	279.96789582879
1	1129	25253.1	281.35528597632
1	1131	25253.2	282.74267612386
1	1133	25253.3	284.13006627139
1	1135	25253.4	285.51745641892
1	1137	25253.5	286.90484656645
1	1139	25253.6	288.29223671399
1	1141	25253.7	289.67962686152
1	1143	25253.8	291.06899216269
1	1145	25253.9	292.46000218753
1	1148	25254	293.85101221237
1	1150	25254.1	295.24202223721
1	1152	25254.2	296.63303226206
1	1154	25254.3	298.0240422869
1	1156	25254.4	299.41505231174
1	1158	25254.5	300.80606233658
1	1160	25254.6	302.19707236142
1	1162	25254.7	303.58808238627
1	1164	25254.8	304.97909241111
1	1166	25254.9	306.37010243595
1	1170	25255	307.76111246079
1	1172	25255.1	309.15212248563
1	1176	25255.2	310.54313251048
1	1178	25255.3	311.93414253532
1	1180	25255.4	313.32515256016
1	1182	25255.5	314.716162585
1	1184	25255.6	316.10717260984
1	1186	25255.7	317.49818263469
1	1188	25255.8	318.8889812416
1	1190	25255.9	320.27964898644
1	1193	25256	321.67031673128
1	1195	25256.1	323.06098447612
1	1197	25256.2	324.45165222096
1	1199	25256.3	325.8423199658
1	1201	25256.4	327.23298771064
1	1203	25256.5	328.62365545548
1	1205	25256.6	330.01432320032
1	1207	25256.7	331.40499094516
1	1209	25256.8	332.79565869
1	1211	25256.9	334.18632643484
1	1214	25257	335.57650085327
1	1216	25257.1	336.96616996791
1	1218	25257.2	338.35583908256
1	1220	25257.3	339.7455081972
1	1222	25257.4	341.13517731185
1	1224	25257.5	342.52484642649
1	1226	25257.6	343.91451554114
1	1228	25257.7	345.30418465578
1	1230	25257.8	346.69385377043
1	1232	25257.9	348.08352288507
1	1236	25258	349.47319199972
1	1238	25258.1	350.86286111436
1	1242	25258.2	352.25253022901
1	1244	25258.3	353.64219934365
1	1246	25258.4	355.0318684583
1	1248	25258.5	356.42153757294
1	1250	25258.6	357.8076703874
1	1252	25258.7	359.19283596738
1	1254	25258.8	360.57800154735
1	1256	25258.9	361.96316712733
1	1259	25259	363.34833270731
1	1261	25259.1	364.73349828728
1	1263	25259.2	366.11866386726
1	1265	25259.3	367.50382944723
1	1267	25259.4	368.88899502721
1	1269	25259.5	370.27416060719
1	1271	25259.6	371.65932618716
1	1273	25259.7	373.04449176714
1	1275	25259.8	374.42965734712
1	1277	25259.9	375.81482292709
1	1280	25260	377.19998850707
1	1282	25260.1	378.58515408704
1	1284	25260.2	379.97031966702
1	1286	25260.3	381.355485247
1	1288	25260.4	382.74065082697
1	1290	25260.5	384.12581640695
1	1292	25260.6	385.51098198693
1	1294	25260.7	386.8961475669
1	1296	25260.8	388.28131314688
1	1298	25260.9	389.66647872685
1	1302	25261	391.05164430683
1	1304	25261.1	392.43680988681
1	1308	25261.2	393.82197546678
1	1310	25261.3	395.20714104676
1	1312	25261.4	396.59230662674
1	1314	25261.5	397.97747220671
1	1316	25261.6	399.36263778669
1	1318	25261.7	400.74780336666
1	1320	25261.8	402.13296894664
1	1322	25261.9	403.51813452662
1	1325	25262	404.90330010659
1	1327	25262.1	406.28846568657
1	1329	25262.2	407.67363126655
1	1331	25262.3	409.05879684652
1	1333	25262.4	410.4439624265
1	1335	25262.5	411.82912800648
1	1337	25262.6	413.21429358645
1	1339	25262.7	414.59945916643
1	1341	25262.8	415.9846247464
1	1343	25262.9	417.36979032638
1	1346	25263	418.75495590636
1	1348	25263.1	420.14012148633
1	1350	25263.2	421.52528706631
1	1352	25263.3	422.91045264629
1	1354	25263.4	424.29561822626
1	1356	25263.5	425.68078380624
1	1358	25263.6	427.06594938621
1	1360	25263.7	428.45111496619
1	1362	25263.8	429.83628054617
1	1364	25263.9	431.22144612614
1	1367	25264	432.60661170612
1	1369	25264.1	433.9917772861
1	1371	25264.2	435.37694286607
1	1373	25264.3	436.76210844605
0	5	25200.1	937.30641796141
0	7	25200.2	937.30641796141
0	9	25200.3	937.3107397948
0	11	25200.4	937.31938346157
0	13	25200.5	937.33234896173
0	15	25200.6	937.34963629527
0	17	25200.7	937.3712454622
0	19	25200.8	937.39717646252
0	21	25200.9	937.42742929622
0	24	25201	937.46200396331
0	26	25201.1	937.50090046379
0	28	25201.2	937.54411879765
0	30	25201.3	937.59165896489
0	32	25201.4	937.64352096553
0	34	25201.5	937.69970479954
0	36	25201.6	937.76021046695
0	38	25201.7	937.82503796774
0	40	25201.8	937.89418730192
0	42	25201.9	937.96765846948
0	45	25202	938.04545147043
0	47	25202.1	938.12756630476
0	49	25202.2	938.21400297248
0	51	25202.3	938.30476147359
0	53	25202.4	938.39984180808
0	55	25202.5	938.49924397596
0	57	25202.6	938.60296797723
0	59	25202.7	938.71101381188
0	61	25202.8	938.82338147992
0	63	25202.9	938.94007098134
0	66	25203	939.06108231615
0	68	25203.1	939.18641548434
0	70	25203.2	939.31607048593
0	72	25203.3	939.45004732089
0	74	25203.4	939.58834598925
0	76	25203.5	939.73096649099
0	78	25203.6	939.87790882611
0	80	25203.7	940.02917299462
0	82	25203.8	940.18475899652
0	84	25203.9	940.3446668318
0	87	25204	940.51102649007
0	89	25204.1	940.68880794702
0	91	25204.2	940.87114790287
0	93	25204.3	941.05804635762
0	95	25204.4	941.24950331126
0	97	25204.5	941.4455187638
0	99	25204.6	941.64609271523
0	101	25204.7	941.85122516556
0	103	25204.8	942.06091611479
0	105	25204.9	942.27516556291
0	108	25205	942.49397350993
0	110	25205.1	942.71733995585
0	112	25205.2	942.94526490066
0	114	25205.3	943.17774834437
0	116	25205.4	943.41479028698
0	118	25205.5	943.65639072848
0	120	25205.6	943.90254966887
0	122	25205.7	944.15326710817
0	124	25205.8	944.40854304636
0	126	25205.9	944.66794639983
0	129	25206	944.93067247916
0	131	25206.1	945.19792831847
0	133	25206.2	945.46971391778
0	135	25206.3	945.74602927707
0	137	25206.4	946.02687439636
0	139	25206.5	946.31224927563
0	141	25206.6	946.60215391489
0	143	25206.7	946.89658831414
0	145	25206.8	947.19555247337
0	147	25206.9	947.4990463926
0	150	25207	947.80707007181
0	152	25207.1	948.11962351101
0	154	25207.2	948.43670671021
0	156	25207.3	948.75831966938
0	158	25207.4	949.08446238855
0	160	25207.5	949.41513486771
0	162	25207.6	949.75033710685
0	164	25207.7	950.09006910598
0	166	25207.8	950.43433086511
0	168	25207.9	950.78312238422
0	171	25208	951.13644366331
0	173	25208.1	951.4942947024
0	175	25208.2	951.85667550147
0	177	25208.3	952.22358606054
0	179	25208.4	952.59659673385
0	181	25208.5	952.98942285746
0	183	25208.6	953.38698182593
0	185	25208.7	953.78927363926
0	187	25208.8	954.19629829745
0	189	25208.9	954.60805580051
0	192	25209	955.02454614843
0	194	25209.1	955.43124440353
0	196	25209.2	955.82374412404
0	198	25209.3	956.20204530996
0	200	25209.4	956.5661479613
0	202	25209.5	956.91605207805
0	204	25209.6	957.25175766021
0	206	25209.7	957.57326470778
0	208	25209.8	957.88057322076
0	210	25209.9	958.17368319916
0	213	25210	958.45259464296
0	215	25210.1	958.71730755218
0	217	25210.2	958.96782192681
0	219	25210.3	959.20413776685
0	221	25210.4	959.42625507231
0	223	25210.5	959.63417384317
0	225	25210.6	959.82789407945
0	227	25210.7	960.00741578114
0	229	25210.8	960.17273894824
0	231	25210.9	960.32386358076
0	234	25211	960.46078967868
0	236	25211.1	960.58351724202
0	238	25211.2	960.69204627077
0	240	25211.3	960.78637676493
0	242	25211.4	960.8665087245
0	244	25211.5	960.93244214948
0	246	25211.6	960.98417703988
0	248	25211.7	961.02171339569
0	250	25211.8	961.04505121691
0	252	25211.9	961.05419050354
0	255	25212	961.05419050354
0	257	25212.1	961.05419050354
0	259	25212.2	961.05419050354
0	261	25212.3	961.05419050354
0	263	25212.4	961.05419050354
0	265	25212.5	961.05419050354
0	267	25212.6	961.05419050354
0	269	25212.7	961.05419050354
0	271	25212.8	961.05419050354
0	273	25212.9	961.05419050354
0	276	25213	961.05419050354
0	278	25213.1	961.05419050354
0	280	25213.2	961.05419050354
0	282	25213.3	961.05419050354
0	284	25213.4	961.05419050354
0	286	25213.5	961.05419050354
0	288	25213.6	961.05419050354
0	290	25213.7	961.05419050354
0	292	25213.8	961.05419050354
0	294	25213.9	961.05419050354
0	297	25214	961.05419050354
0	299	25214.1	961.05419050354
0	301	25214.2	961.05419050354
0	303	25214.3	961.05419050354
0	305	25214.4	961.05419050354
0	307	25214.5	961.05419050354
0	309	25214.6	961.05419050354
0	311	25214.7	961.05419050354
0	313	25214.8	961.05419050354
0	315	25214.9	961.05419050354
0	318	25215	961.05419050354
0	320	25215.1	961.05419050354
0	322	25215.2	961.05419050354
0	324	25215.3	961.05419050354
0	326	25215.4	961.05419050354
0	328	25215.5	961.05419050354
0	330	25215.6	961.05419050354
0	332	25215.7	961.05419050354
0	334	25215.8	961.05419050354
0	336	25215.9	961.05419050354
0	339	25216	961.05419050354
0	341	25216.1	961.05419050354
0	343	25216.2	961.05419050354
0	345	25216.3	961.05419050354
0	347	25216.4	961.05419050354
0	349	25216.5	961.05419050354
0	351	25216.6	961.05419050354
0	353	25216.7	961.05419050354
0	355	25216.8	961.05419050354
0	357	25216.9	961.05419050354
0	360	25217	961.05419050354
0	362	25217.1	961.05419050354
0	364	25217.2	961.05419050354
0	366	25217.3	961.05419050354
0	368	25217.4	961.05419050354
0	370	25217.5	961.05419050354
0	372	25217.6	961.05419050354
0	374	25217.7	961.05419050354
0	376	25217.8	961.05419050354
0	378	25217.9	961.05419050354
0	381	25218	961.05419050354
0	383	25218.1	961.05419050354
0	385	25218.2	961.05419050354
0	387	25218.3	961.05419050354
0	389	25218.4	961.05419050354
0	391	25218.5	961.05419050354
0	393	25218.6	961.05419050354
0	395	25218.7	961.05419050354
0	397	25218.8	961.05419050354
0	399	25218.9	961.05419050354
0	402	25219	961.05419050354
0	404	25219.1	961.05419050354
0	406	25219.2	961.05419050354
0	408	25219.3	961.05419050354
0	410	25219.4	961.05419050354
0	412	25219.5	961.05419050354
0	414	25219.6	961.05419050354
0	416	25219.7	961.05419050354
0	418	25219.8	961.05419050354
0	420	25219.9	961.05419050354
0	423	25220	961.05419050354
0	425	25220.1	961.05419050354
0	427	25220.2	961.05419050354
0	429	25220.3	961.05419050354
0	431	25220.4	961.05419050354
0	433	25220.5	961.05419050354
0	435	25220.6	961.05419050354
0	437	25220.7	961.05419050354
0	439	25220.8	961.05419050354
0	441	25220.9	961.05419050354
0	444	25221	961.05419050354
0	446	25221.1	961.05419050354
0	448	25221.2	961.05419050354
0	450	25221.3	961.05419050354
0	452	25221.4	961.05419050354
0	454	25221.5	961.05419050354
0	456	25221.6	961.05419050354
0	458	25221.7	961.05419050354
0	460	25221.8	961.05419050354
0	462	25221.9	961.05419050354
0	465	25222	961.05419050354
0	467	25222.1	961.05419050354
0	469	25222.2	961.05419050354
0	471	25222.3	961.05419050354
0	473	25222.4	961.05419050354
0	475	25222.5	961.05419050354
0	477	25222.6	961.05419050354
0	479	25222.7	961.05419050354
0	481	25222.8	961.05419050354
0	483	25222.9	961.05419050354
0	486	25223	961.05419050354
0	488	25223.1	961.05419050354
0	490	25223.2	961.05419050354
0	492	25223.3	961.05419050354
0	494	25223.4	961.05419050354
0	496	25223.5	961.05419050354
0	498	25223.6	961.05419050354
0	500	25223.7	961.05419050354
0	502	25223.8	961.05419050354
0	504	25223.9	961.05419050354
0	507	25224	961.05419050354
0	509	25224.1	961.05419050354
0	511	25224.2	961.05419050354
0	513	25224.3	961.05419050354
0	515	25224.4	961.05419050354
0	517	25224.5	961.05419050354
0	519	25224.6	961.05419050354
0	521	25224.7	961.05419050354
0	523	25224.8	961.05419050354
0	525	25224.9	961.05419050354
0	528	25225	961.05419050354
0	530	25225.1	961.05419050354
0	532	25225.2	961.05419050354
0	534	25225.3	961.05419050354
0	536	25225.4	961.05419050354
0	538	25225.5	961.05419050354
0	540	25225.6	961.05419050354
0	542	25225.7	961.05419050354
0	544	25225.8	961.05419050354
0	546	25225.9	961.05419050354
0	549	25226	961.05419050354
0	551	25226.1	961.05419050354
0	553	25226.2	961.05419050354
0	555	25226.3	961.05419050354
0	557	25226.4	961.05419050354
0	559	25226.5	961.05419050354
0	561	25226.6	961.05419050354
0	563	25226.7	961.05419050354
0	565	25226.8	961.05419050354
0	567	25226.9	961.05419050354
0	570	25227	961.05419050354
0	572	25227.1	961.05419050354
0	574	25227.2	961.05419050354
0	576	25227.3	961.05419050354
0	578	25227.4	961.05419050354
0	580	25227.5	961.05419050354
0	582	25227.6	961.05419050354
0	584	25227.7	961.05419050354
0	586	25227.8	961.05419050354
0	588	25227.9	961.05419050354
0	591	25228	961.05419050354
0	593	25228.1	961.05419050354
0	595	25228.2	961.05419050354
0	597	25228.3	961.05419050354
0	599	25228.4	961.05419050354
0	601	25228.5	961.05419050354
0	603	25228.6	961.05419050354
0	605	25228.7	961.05419050354
0	607	25228.8	961.05419050354
0	609	25228.9	961.05419050354
0	612	25229	961.05419050354
0	614	25229.1	961.05419050354
0	616	25229.2	961.05419050354
0	618	25229.3	961.05419050354
0	620	25229.4	961.05419050354
0	622	25229.5	961.05419050354
0	624	25229.6	961.05419050354
0	626	25229.7	961.05419050354
0	628	25229.8	961.05419050354
0	630	25229.9	961.05419050354
0	633	25230	961.05419050354
0	635	25230.1	961.05419050354
0	637	25230.2	961.05419050354
0	639	25230.3	961.05419050354
0	641	25230.4	961.05419050354
0	643	25230.5	961.05419050354
0	645	25230.6	961.05419050354
0	647	25230.7	961.05419050354
0	649	25230.8	961.05419050354
0	651	25230.9	961.05419050354
0	654	25231	961.05419050354
0	656	25231.1	961.05419050354
0	658	25231.2	961.05419050354
0	660	25231.3	961.05419050354
0	662	25231.4	961.05419050354
0	664	25231.5	961.05419050354
0	666	25231.6	961.05419050354
0	668	25231.7	961.05419050354
0	670	25231.8	961.05419050354
0	672	25231.9	961.05419050354
0	675	25232	961.05419050354
0	677	25232.1	961.0589233484
0	679	25232.2	961.06838903813
0	681	25232.3	961.08258757271
0	683	25232.4	961.10151895216
0	685	25232.5	961.12518317648
0	687	25232.6	961.15358024565
0	689	25232.7	961.18671015969
0	691	25232.8	961.2245729186
0	693	25232.9	961.26716852236
0	696	25233	961.31449697099
0	698	25233.1	961.36655826448
0	700	25233.2	961.42335240283
0	702	25233.3	961.48487938605
0	704	25233.4	961.55113921412
0	706	25233.5	961.62213188706
0	708	25233.6	961.69785740487
0	710	25233.7	961.77831576753
0	712	25233.8	961.86350697506
0	714	25233.9	961.95343102746
0	717	25234	962.04808792471
0	719	25234.1	962.14747766683
0	721	25234.2	962.25160025381
0	723	25234.3	962.36045568565
0	725	25234.4	962.47404396235
0	727	25234.5	962.59236508392
0	729	25234.6	962.71541905035
0	731	25234.7	962.84320586165
0	733	25234.8	962.97724137931
0	735	25234.9	963.11484217342
0	738	25235	963.25517124858
0	740	25235.1	963.40017795957
0	742	25235.2	963.54986230641
0	744	25235.3	963.70422428908
0	746	25235.4	963.8632639076
0	748	25235.5	964.02698116195
0	750	25235.6	964.19537605214
0	752	25235.7	964.36844857817
0	754	25235.8	964.54619874004
0	756	25235.9	964.72862653774
0	759	25236	964.91573197129
0	761	25236.1	965.10751504067
0	763	25236.2	965.30397574589
0	765	25236.3	965.50511408695
0	767	25236.4	965.71093006385
0	769	25236.5	965.92142367659
0	771	25236.6	966.13659492517
0	773	25236.7	966.35644380958
0	775	25236.8	966.58097032984
0	777	25236.9	966.81017448593
0	780	25237	967.04405627786
0	782	25237.1	967.28261570563
0	784	25237.2	967.52585276924
0	786	25237.3	967.77376746869
0	788	25237.4	968.02635980397
0	790	25237.5	968.2836297751
0	792	25237.6	968.54557738206
0	794	25237.7	968.81220262486
0	796	25237.8	969.0835055035
0	798	25237.9	969.35948601798
0	801	25238	969.6401441683
0	803	25238.1	969.92844375614
0	805	25238.2	970.22226923439
0	807	25238.3	970.52083383326
0	809	25238.4	970.82413755274
0	811	25238.5	971.13218039284
0	813	25238.6	971.44496235356
0	815	25238.7	971.76248343489
0	817	25238.8	972.08474363684
0	819	25238.9	972.4117429594
0	822	25239	972.74348140259
0	824	25239.1	973.07995896639
0	826	25239.2	973.42117565081
0	828	25239.3	973.76713145584
0	830	25239.4	974.11782638149
0	832	25239.5	974.45596316283
0	834	25239.6	974.78692317117
0	836	25239.7	975.12223791645
0	838	25239.8	975.46190739869
0	840	25239.9	975.80593161789
0	843	25240	976.15431057403
0	845	25240.1	976.50704426713
0	847	25240.2	976.86413269717
0	849	25240.3	977.2156884692
0	851	25240.4	977.55268475286
0	853	25240.5	977.89369289705
0	855	25240.6	978.23871290175
0	857	25240.7	978.58774476698
0	859	25240.8	978.94078849272
0	861	25240.9	979.29784407899
0	864	25241	979.65891152577
0	866	25241.1	980.02399083308
0	870	25241.2	980.3930820009
0	872	25241.3	980.76618502924
0	874	25241.4	981.14329991811
0	876	25241.5	981.49628867681
0	878	25241.6	981.84802366209
0	880	25241.7	982.20342255348
0	882	25241.8	982.56248535095
0	884	25241.9	982.92521205453
0	887	25242	983.2916026642
0	889	25242.1	983.66165717997
0	891	25242.2	984.03537560183
0	893	25242.3	984.4127579298
0	895	25242.4	984.79380416385
0	897	25242.5	985.17851430401
0	899	25242.6	985.51314427363
0	901	25242.7	985.83174000453
0	903	25242.8	986.15331326561
0	905	25242.9	986.4778640569
0	909	25243	986.80539237838
0	911	25243.1	987.13589823005
0	915	25243.2	987.46938161192
0	917	25243.3	987.80584252399
0	919	25243.4	988.12216290589
0	921	25243.5	988.38149834893
0	923	25243.6	988.64308888277
0	925	25243.7	988.90693450743
0	927	25243.8	989.17303522289
0	929	25243.9	989.44139102917
0	933	25244	989.71200192625
0	935	25244.1	989.98486791414
0	939	25244.2	990.25998899285
0	941	25244.3	990.53736516236
0	943	25244.4	990.81699642267
0	945	25244.5	991.0988827738
0	947	25244.6	991.38302421574
0	949	25244.7	991.66942074849
0	951	25244.8	991.95807237204
0	953	25244.9	992.24897908641
0	956	25245	992.54214089158
0	958	25245.1	992.83755778756
0	960	25245.2	993.13522977435
0	962	25245.3	993.43515685195
0	964	25245.4	993.73733902036
0	966	25245.5	994.04177627958
0	968	25245.6	994.34846862961
0	970	25245.7	994.65741607045
0	972	25245.8	994.96861860209
0	974	25245.9	995.28185071546
0	977	25246	995.59508282884
0	979	25246.1	995.90831494221
0	981	25246.2	996.22154705559
0	983	25246.3	996.53477916896
0	985	25246.4	996.84801128233
0	987	25246.5	997.16124339571
0	989	25246.6	997.47447550908
0	991	25246.7	997.78770762245
0	993	25246.8	998.10093973583
0	995	25246.9	998.4141718492
0	998	25247	998.72740396258
0	1000	25247.1	999.04063607595
0	1002	25247.2	999.35386818932
0	1004	25247.3	999.6671003027
0	1006	25247.4	999.98033241607
0	1008	25247.5	1000.2935645294
0	1010	25247.6	1000.6067966428
0	1012	25247.7	1000.9200287562
0	1014	25247.8	1001.2332608696
0	1016	25247.9	1001.5464929829
0	1020	25248	1001.8597250963
0	1022	25248.1	1002.1729572097
0	1026	25248.2	1002.4861893231
0	1028	25248.3	1002.7994214364
0	1030	25248.4	1003.1126535498
0	1032	25248.5	1003.4258856632
0	1034	25248.6	1003.7391177766
0	1036	25248.7	1004.0523498899
0	1038	25248.8	1004.3655820033
0	1040	25248.9	1004.6158144
0	1043	25249	1004.8069408
0	1045	25249.1	1004.9980672
0	1047	25249.2	1005.1891936
0	1049	25249.3	1005.38032
0	1051	25249.4	1005.5714464
0	1053	25249.5	1005.7625728
0	1055	25249.6	1005.9536992
0	1057	25249.7	1006.1448256
0	1059	25249.8	1006.335952
0	1061	25249.9	1006.5270784
0	1064	25250	1006.7182048
0	1066	25250.1	1006.9093312
0	1068	25250.2	1007.1004576
0	1070	25250.3	1007.291584
0	1072	25250.4	1007.4827104
0	1074	25250.5	1007.6738368
0	1076	25250.6	1007.8649632
0	1078	25250.7	1008.0560896
0	1080	25250.8	1008.247216
0	1082	25250.9	1008.4383424
0	1085	25251	1008.6294688
0	1087	25251.1	1008.8205952
0	1089	25251.2	1009.0117216
0	1091	25251.3	1009.202848
0	1093	25251.4	1009.3939744
0	1095	25251.5	1009.5851008
0	1097	25251.6	1009.7277321739
0	1099	25251.7	1009.8316052174
0	1101	25251.8	1009.9354782609
0	1103	25251.9	1010.0393513043
0	1106	25252	1010.1432243478
0	1108	25252.1	1010.2470973913
0	1110	25252.2	1010.3509704348
0	1112	25252.3	1010.4548434783
0	1114	25252.4	1010.5583891061
0	1116	25252.5	1010.6610778256
0	1118	25252.6	1010.7637665452
0	1120	25252.7	1010.8664552648
0	1122	25252.8	1010.9691439844
0	1124	25252.9	1011.071832704
0	1127	25253	1011.1745214235
0	1129	25253.1	1011.2772101431
0	1131	25253.2	1011.3798988627
0	1133	25253.3	1011.4825875823
0	1135	25253.4	1011.5852763019
0	1137	25253.5	1011.6879650215
0	1139	25253.6	1011.790653741
0	1141	25253.7	1011.8933424606
0	1143	25253.8	1011.9520474946
0	1145	25253.9	1011.9741270188
0	1148	25254	1011.9962065431
0	1150	25254.1	1012.0182860673
0	1152	25254.2	1012.0403655915
0	1154	25254.3	1012.0624451157
0	1156	25254.4	1012.0845246399
0	1158	25254.5	1012.1066041641
0	1160	25254.6	1012.1286836883
0	1162	25254.7	1012.1507632125
0	1164	25254.8	1012.1728427367
0	1166	25254.9	1012.1949222609
0	1170	25255	1012.2170017851
0	1172	25255.1	1012.2390813093
0	1176	25255.2	1012.2611608335
0	1178	25255.3	1012.2832403577
0	1180	25255.4	1012.3053198819
0	1182	25255.5	1012.3273994061
0	1184	25255.6	1012.3494789303
0	1186	25255.7	1012.3715584545
0	1188	25255.8	1012.3565639756
0	1190	25255.9	1012.3186216765
0	1193	25256	1012.2806793774
0	1195	25256.1	1012.2427370784
0	1197	25256.2	1012.2047947793
[...]
3	1360	25263.7	39.347132565989
3	1362	25263.8	38.578115200144
3	1364	25263.9	37.800050571171
3	1367	25264	37.012938679071
3	1369	25264.1	36.216779523844
3	1371	25264.2	35.410230235248
3	1373	25264.3	34.573397426025
3	1375	25264.4	33.727266474477
3	1377	25264.5	32.871837380605
3	1379	25264.6	32.007110144408
3	1381	25264.7	31.133084765886
3	1383	25264.8	30.24976124504
3	1385	25264.9	29.357139581869
3	1388	25265	28.455219776373
3	1390	25265.1	27.544001828553
3	1392	25265.2	26.623485738408
3	1394	25265.3	25.693671505938
2	5	25200.1	1008.4207432039
2	7	25200.2	1008.4207432039
2	9	25200.3	1008.421671142
2	11	25200.4	1008.4235270182
2	13	25200.5	1008.4263108325
2	15	25200.6	1008.4300225849
2	17	25200.7	1008.4346622754
2	19	25200.8	1008.440229904
2	21	25200.9	1008.4467254707
2	24	25201	1008.4541489755
2	26	25201.1	1008.4625004184
2	28	25201.2	1008.4717797994
2	30	25201.3	1008.4819871185
2	32	25201.4	1008.4931223758
2	34	25201.5	1008.5051855711
2	36	25201.6	1008.5181767045
2	38	25201.7	1008.532095776
2	40	25201.8	1008.5469427856
2	42	25201.9	1008.5627177334
2	45	25202	1008.5794206192
2	47	25202.1	1008.5970514431
2	49	25202.2	1008.6156102051
2	51	25202.3	1008.6350969053
2	53	25202.4	1008.6555115435
2	55	25202.5	1008.6768541198
2	57	25202.6	1008.6991246343
2	59	25202.7	1008.7223230868
2	61	25202.8	1008.7464494774
2	63	25202.9	1008.7715038062
2	66	25203	1008.797486073
2	68	25203.1	1008.8243962779
2	70	25203.2	1008.852234421
2	72	25203.3	1008.8810005021
2	74	25203.4	1008.9106945213
2	76	25203.5	1008.9413164787
2	78	25203.6	1008.9728663741
2	80	25203.7	1009.0053442077
2	82	25203.8	1009.0387499793
2	84	25203.9	1009.0730836891
2	87	25204	1009.1083453369
2	89	25204.1	1009.1445349229
2	91	25204.2	1009.1816524469
2	93	25204.3	1009.2196979091
2	95	25204.4	1009.2586713093
2	97	25204.5	1009.2985726477
2	99	25204.6	1009.3394019241
2	101	25204.7	1009.3811591387
2	103	25204.8	1009.4238442914
2	105	25204.9	1009.4674573821
2	108	25205	1009.511998411
2	110	25205.1	1009.5574673779
2	112	25205.2	1009.603864283
2	114	25205.3	1009.6511891262
2	116	25205.4	1009.6994419074
2	118	25205.5	1009.7486226268
2	120	25205.6	1009.7987312843
2	122	25205.7	1009.8497678799
2	124	25205.8	1009.9017324135
2	126	25205.9	1009.9546248853
2	129	25206	1010.0084452952
2	131	25206.1	1010.0631936432
2	133	25206.2	1010.1188699292
2	135	25206.3	1010.1754741534
2	137	25206.4	1010.2330063157
2	139	25206.5	1010.2914664161
2	141	25206.6	1010.3508544546
2	143	25206.7	1010.4111704311
2	145	25206.8	1010.4724143458
2	147	25206.9	1010.5345861986
2	150	25207	1010.5976859895
2	152	25207.1	1010.6617137185
2	154	25207.2	1010.7266693856
2	156	25207.3	1010.7925529908
2	158	25207.4	1010.8593645341
2	160	25207.5	1010.9271040155
2	162	25207.6	1010.995771435
2	164	25207.7	1011.0653667926
2	166	25207.8	1011.1358900883
2	168	25207.9	1011.2073413221
2	171	25208	1011.279720494
2	173	25208.1	1011.353027604
2	175	25208.2	1011.4272626521
2	177	25208.3	1011.5024256383
2	179	25208.4	1011.5785165626
2	181	25208.5	1011.655535425
2	183	25208.6	1011.7334822255
2	185	25208.7	1011.8123569641
2	187	25208.8	1011.8921596408
2	189	25208.9	1011.9728902556
2	192	25209	1012.0545488085
2	194	25209.1	1012.1371352995
2	196	25209.2	1012.2206497287
2	198	25209.3	1012.3050920959
2	200	25209.4	1012.3904624012
2	202	25209.5	1012.4767606446
2	204	25209.6	1012.5639868261
2	206	25209.7	1012.6521409458
2	208	25209.8	1012.7412230035
2	210	25209.9	1012.8312329993
2	213	25210	1012.9221709332
2	215	25210.1	1013.0140368053
2	217	25210.2	1013.1068306154
2	219	25210.3	1013.2005523636
2	221	25210.4	1013.29520205
2	223	25210.5	1013.3907796744
2	225	25210.6	1013.4872852369
2	227	25210.7	1013.5847187376
2	229	25210.8	1013.6830801763
2	231	25210.9	1013.7823695531
2	234	25211	1013.8825868681
2	236	25211.1	1013.9837321211
2	238	25211.2	1014.0858053123
2	240	25211.3	1014.1443248783
2	242	25211.4	1014.1961977287
2	244	25211.5	1014.2485337295
2	246	25211.6	1014.3013328809
2	248	25211.7	1014.3545951826
2	250	25211.8	1014.4083206349
2	252	25211.9	1014.4625092375
2	255	25212	1014.5171609907
2	257	25212.1	1014.5722758942
2	259	25212.2	1014.6278539482
2	261	25212.3	1014.6838951527
2	263	25212.4	1014.7403995076
2	265	25212.5	1014.797367013
2	267	25212.6	1014.8547976688
2	269	25212.7	1014.9126914751
2	271	25212.8	1014.9710484318
2	273	25212.9	1015.029868539
2	276	25213	1015.0891517966
2	278	25213.1	1015.1368636227
2	280	25213.2	1015.1719990677
2	282	25213.3	1015.2074047853
2	284	25213.4	1015.2430807755
2	286	25213.5	1015.2790270384
2	288	25213.6	1015.315243574
2	290	25213.7	1015.3517303822
2	292	25213.8	1015.388487463
2	294	25213.9	1015.4255148166
2	297	25214	1015.4628124427
2	299	25214.1	1015.5003533143
2	301	25214.2	1015.5378941858
2	303	25214.3	1015.5754350574
2	305	25214.4	1015.5608075434
2	307	25214.5	1015.5389582257
2	309	25214.6	1015.517108908
2	311	25214.7	1015.4952595903
2	313	25214.8	1015.4734102727
2	315	25214.9	1015.451560955
2	318	25215	1015.4297116373
2	320	25215.1	1015.4078623196
2	322	25215.2	1015.3860130019
2	324	25215.3	1015.3641636842
2	326	25215.4	1015.3423143665
2	328	25215.5	1015.3204650488
2	330	25215.6	1015.2986157311
2	332	25215.7	1015.2767664134
2	334	25215.8	1015.2549170957
2	336	25215.9	1015.2330677781
2	339	25216	1015.2112184604
2	341	25216.1	1015.1893691427
2	343	25216.2	1015.167519825
2	345	25216.3	1015.1456705073
2	347	25216.4	1015.0647135087
2	349	25216.5	1014.9630398736
2	351	25216.6	1014.8613662384
2	353	25216.7	1014.7596926032
2	355	25216.8	1014.6580189681
2	357	25216.9	1014.5563453329
2	360	25217	1014.4546716977
2	362	25217.1	1014.3529980626
2	364	25217.2	1014.2513244274
2	366	25217.3	1014.1496507922
2	368	25217.4	1014.0479771571
2	370	25217.5	1013.9463035219
2	372	25217.6	1013.8446298867
2	374	25217.7	1013.7429562516
2	376	25217.8	1013.6402595674
2	378	25217.9	1013.5374134775
2	381	25218	1013.4345673877
2	383	25218.1	1013.3317212978
2	385	25218.2	1013.228875208
2	387	25218.3	1013.1260291181
2	389	25218.4	1013.0231830283
2	391	25218.5	1012.9203369384
2	393	25218.6	1012.7981696
2	395	25218.7	1012.6070432
2	397	25218.8	1012.4159168
2	399	25218.9	1012.2247904
2	402	25219	1012.033664
2	404	25219.1	1011.8425376
2	406	25219.2	1011.6514112
2	408	25219.3	1011.4602848
2	410	25219.4	1011.2691584
2	412	25219.5	1011.078032
2	414	25219.6	1010.8869056
2	416	25219.7	1010.6957792
2	418	25219.8	1010.5046528
2	420	25219.9	1010.3135264
2	423	25220	1010.1224
2	425	25220.1	1009.9312736
2	427	25220.2	1009.7401472
2	429	25220.3	1009.5490208
2	431	25220.4	1009.3578944
2	433	25220.5	1009.166768
2	435	25220.6	1008.9756416
2	437	25220.7	1008.7845152
2	439	25220.8	1008.5933888
2	441	25220.9	1008.4022624
2	444	25221	1008.211136
2	446	25221.1	1008.0200096
2	448	25221.2	1007.8288832
2	450	25221.3	1007.6490614205
2	452	25221.4	1007.3930860763
2	454	25221.5	1007.079934582
2	456	25221.6	1006.7667830877
2	458	25221.7	1006.4536315934
2	460	25221.8	1006.1404800992
2	462	25221.9	1005.8273286049
2	465	25222	1005.5141771106
2	467	25222.1	1005.2010256163
2	469	25222.2	1004.887874122
2	471	25222.3	1004.5747226277
2	473	25222.4	1004.2615711335
2	475	25222.5	1003.9484196392
2	477	25222.6	1003.6352681449
2	479	25222.7	1003.3221166506
2	481	25222.8	1003.0089651563
2	483	25222.9	1002.695813662
2	486	25223	1002.3826621677
2	488	25223.1	1002.0695106735
2	490	25223.2	1001.7563591792
2	492	25223.3	1001.4432076849
2	494	25223.4	1001.1300561906
2	496	25223.5	1000.8169046963
2	498	25223.6	1000.503753202
2	500	25223.7	1000.1906017078
2	502	25223.8	999.87745021347
2	504	25223.9	999.56429871918
2	507	25224	999.2511472249
2	509	25224.1	998.93799573062
2	511	25224.2	998.62484423633
2	513	25224.3	998.31169274205
2	515	25224.4	997.99854124776
2	517	25224.5	997.68538975348
2	519	25224.6	997.37223825919
2	521	25224.7	997.05908676491
2	523	25224.8	996.74593527062
2	525	25224.9	996.43278377634
2	528	25225	996.11963228205
2	530	25225.1	995.80648078777
2	532	25225.2	995.49332929349
2	534	25225.3	995.1801777992
2	536	25225.4	994.86702630492
2	538	25225.5	994.55387481063
2	540	25225.6	994.24072331635
2	542	25225.7	993.92757182206
2	544	25225.8	993.61442032778
2	546	25225.9	993.30126883349
2	549	25226	992.98811733921
2	551	25226.1	992.67496584492
2	553	25226.2	992.36181435064
2	555	25226.3	992.04866285636
2	557	25226.4	991.73551136207
2	559	25226.5	991.42235986779
2	561	25226.6	991.08908508352
2	563	25226.7	990.68691687017
2	565	25226.8	990.28474865682
2	567	25226.9	989.88258044347
2	570	25227	989.48041223012
2	572	25227.1	989.07824401677
2	574	25227.2	988.67607580342
2	576	25227.3	988.27390759008
2	578	25227.4	987.87173937673
2	580	25227.5	987.35702751971
2	582	25227.6	986.83267260915
2	584	25227.7	986.30831769859
2	586	25227.8	985.78396278803
2	588	25227.9	985.25960787747
2	591	25228	984.73525296691
2	593	25228.1	984.21089805635
2	595	25228.2	983.68654314579
2	597	25228.3	983.10063385926
2	599	25228.4	982.50577761651
2	601	25228.5	981.91092137377
2	603	25228.6	981.31606513102
2	605	25228.7	980.72120888827
2	607	25228.8	980.12635264553
2	609	25228.9	979.52668279088
2	612	25229	978.89535169613
2	614	25229.1	978.26402060139
2	616	25229.2	977.63268950664
2	618	25229.3	977.0013584119
2	620	25229.4	976.37066966931
2	622	25229.5	975.74010377795
2	624	25229.6	975.10953788659
2	626	25229.7	974.47897199523
2	628	25229.8	973.84840610387
2	630	25229.9	973.21784021251
2	633	25230	972.58727432115
2	635	25230.1	971.93864787376
2	637	25230.2	971.28821709827
2	639	25230.3	970.63778632278
2	641	25230.4	969.98735554728
2	643	25230.5	969.33692477179
2	645	25230.6	968.6864939963
2	647	25230.7	968.04388133887
2	649	25230.8	967.41531686234
2	651	25230.9	966.80080056671
2	654	25231	966.20033245197
2	656	25231.1	965.61800096748
2	658	25231.2	965.03952632533
2	660	25231.3	964.47524965219
2	662	25231.4	963.92517094808
2	664	25231.5	963.38929021299
2	666	25231.6	962.86760744691
2	668	25231.7	962.36012264986
2	670	25231.8	961.86683582183
2	672	25231.9	961.38774696282
2	675	25232	960.92285607284
2	677	25232.1	960.47216315187
2	679	25232.2	960.03566819992
2	681	25232.3	959.613371217
2	683	25232.4	959.2052722031
2	685	25232.5	958.81137115821
2	687	25232.6	958.43166808235
2	689	25232.7	958.06616297551
2	691	25232.8	957.71485583769
2	693	25232.9	957.37774666889
2	696	25233	957.05483546912
2	698	25233.1	956.74612223836
2	700	25233.2	956.45160697662
2	702	25233.3	956.17128968391
2	704	25233.4	955.90517036021
2	706	25233.5	955.65324900554
2	708	25233.6	955.41552561989
2	710	25233.7	955.20084332813
2	712	25233.8	955.00041545056
2	714	25233.9	954.81358191443
2	717	25234	954.64034271975
2	719	25234.1	954.48069786651
2	721	25234.2	954.33464735472
2	723	25234.3	954.20219118437
2	725	25234.4	954.08332935547
2	727	25234.5	953.97806186802
2	729	25234.6	953.88638872201
2	731	25234.7	953.80830991744
2	733	25234.8	953.74382545432
2	735	25234.9	953.69293533265
2	738	25235	953.65563955243
2	740	25235.1	953.63193811364
2	742	25235.2	953.62183101631
2	744	25235.3	953.62183101631
2	746	25235.4	953.62183101631
2	748	25235.5	953.62183101631
2	750	25235.6	953.62183101631
2	752	25235.7	953.62183101631
2	754	25235.8	953.62183101631
2	756	25235.9	953.62183101631
2	759	25236	953.62183101631
2	761	25236.1	953.62183101631
2	763	25236.2	953.62183101631
2	765	25236.3	953.62183101631
2	767	25236.4	953.62183101631
2	769	25236.5	953.62183101631
2	771	25236.6	953.62183101631
2	773	25236.7	953.62183101631
2	775	25236.8	953.62183101631
2	777	25236.9	953.62183101631
2	780	25237	953.62183101631
2	782	25237.1	953.62183101631
2	784	25237.2	953.62183101631
2	786	25237.3	953.62183101631
2	788	25237.4	953.62183101631
2	790	25237.5	953.62183101631
2	792	25237.6	953.62183101631
2	794	25237.7	953.62183101631
2	796	25237.8	953.62183101631
2	798	25237.9	953.62183101631
2	801	25238	953.62183101631
2	803	25238.1	953.62183101631
2	805	25238.2	953.62183101631
2	807	25238.3	953.62183101631
2	809	25238.4	953.62183101631
2	811	25238.5	953.62183101631
2	813	25238.6	953.62183101631
2	815	25238.7	953.62183101631
2	817	25238.8	953.62183101631
2	819	25238.9	953.62183101631
2	822	25239	953.62183101631
2	824	25239.1	953.62183101631
2	826	25239.2	953.62183101631
2	828	25239.3	953.62183101631
2	830	25239.4	953.62183101631
2	832	25239.5	953.62183101631
2	834	25239.6	953.62183101631
2	836	25239.7	953.62183101631
2	838	25239.8	953.62183101631
2	840	25239.9	953.62183101631
2	843	25240	953.62183101631
2	845	25240.1	953.62183101631
2	847	25240.2	953.62183101631
2	849	25240.3	953.62183101631
2	851	25240.4	953.62183101631
2	853	25240.5	953.62183101631
2	855	25240.6	953.62183101631
2	857	25240.7	953.62183101631
2	859	25240.8	953.62183101631
2	861	25240.9	953.62183101631
2	864	25241	953.62183101631
2	866	25241.1	953.62183101631
2	870	25241.2	953.62183101631
2	872	25241.3	953.62183101631
2	874	25241.4	953.62183101631
2	876	25241.5	953.62183101631
2	878	25241.6	953.62183101631
2	880	25241.7	953.62183101631
2	882	25241.8	953.62183101631
2	884	25241.9	953.62183101631
2	887	25242	953.62183101631
2	889	25242.1	953.62183101631
2	891	25242.2	953.62183101631
2	893	25242.3	953.62183101631
2	895	25242.4	953.62183101631
2	897	25242.5	953.62183101631
2	899	25242.6	953.62183101631
2	901	25242.7	953.62183101631
2	903	25242.8	953.62183101631
2	905	25242.9	953.62183101631
2	909	25243	953.62183101631
2	911	25243.1	953.62183101631
2	915	25243.2	953.62183101631
2	917	25243.3	953.62183101631
2	919	25243.4	953.62183101631
2	921	25243.5	953.62183101631
2	923	25243.6	953.62183101631
2	925	25243.7	953.62183101631
2	927	25243.8	953.62183101631
2	929	25243.9	953.62183101631
2	933	25244	953.62183101631
2	935	25244.1	953.62183101631
2	939	25244.2	953.62183101631
2	941	25244.3	953.62183101631
2	943	25244.4	953.62183101631
2	945	25244.5	953.62183101631
2	947	25244.6	953.62183101631
2	949	25244.7	953.62183101631
2	951	25244.8	953.62183101631
2	953	25244.9	953.62183101631
2	956	25245	953.62183101631
2	958	25245.1	953.62183101631
2	960	25245.2	953.62183101631
2	962	25245.3	953.62183101631
2	964	25245.4	953.62183101631
2	966	25245.5	953.62183101631
2	968	25245.6	953.62183101631
2	970	25245.7	953.62183101631
2	972	25245.8	953.62183101631
2	974	25245.9	953.62183101631
2	977	25246	953.62183101631
2	979	25246.1	953.62183101631
2	981	25246.2	953.62183101631
2	983	25246.3	953.62183101631
2	985	25246.4	953.62183101631
2	987	25246.5	953.62183101631
2	989	25246.6	953.62183101631
2	991	25246.7	953.62183101631
2	993	25246.8	953.62183101631
2	995	25246.9	953.62183101631
2	998	25247	953.62183101631
2	1000	25247.1	953.62183101631
2	1002	25247.2	953.62183101631
2	1004	25247.3	953.62183101631
2	1006	25247.4	953.62183101631
2	1008	25247.5	953.62183101631
2	1010	25247.6	953.62183101631
2	1012	25247.7	953.62183101631
2	1014	25247.8	953.62183101631
2	1016	25247.9	953.62183101631
2	1020	25248	953.62183101631
2	1022	25248.1	953.62183101631
2	1026	25248.2	953.62183101631
2	1028	25248.3	953.62183101631
2	1030	25248.4	953.62183101631
2	1032	25248.5	953.62183101631
2	1034	25248.6	953.62183101631
2	1036	25248.7	953.62183101631
2	1038	25248.8	953.62183101631
2	1040	25248.9	953.62183101631
2	1043	25249	953.62183101631
2	1045	25249.1	953.62183101631
2	1047	25249.2	953.62183101631
2	1049	25249.3	953.62183101631
2	1051	25249.4	953.62183101631
2	1053	25249.5	953.62183101631
2	1055	25249.6	953.62183101631
2	1057	25249.7	953.62183101631
2	1059	25249.8	953.62183101631
2	1061	25249.9	953.62183101631
2	1064	25250	953.62183101631
2	1066	25250.1	953.62183101631
2	1068	25250.2	953.62183101631
2	1070	25250.3	953.62183101631
2	1072	25250.4	953.62183101631
2	1074	25250.5	953.62183101631
2	1076	25250.6	953.62183101631
2	1078	25250.7	953.62183101631
2	1080	25250.8	953.62183101631
2	1082	25250.9	953.62183101631
2	1085	25251	953.62183101631
2	1087	25251.1	953.62183101631
2	1089	25251.2	953.62183101631
2	1091	25251.3	953.62183101631
2	1093	25251.4	953.62183101631
2	1095	25251.5	953.62183101631
2	1097	25251.6	953.62183101631
2	1099	25251.7	953.62183101631
2	1101	25251.8	953.62183101631
2	1103	25251.9	953.62183101631
2	1106	25252	953.62183101631
2	1108	25252.1	953.62183101631
2	1110	25252.2	953.62183101631
2	1112	25252.3	953.62183101631
2	1114	25252.4	953.62183101631
2	1116	25252.5	953.62183101631
2	1118	25252.6	953.62183101631
2	1120	25252.7	953.62183101631
2	1122	25252.8	953.62183101631
2	1124	25252.9	953.62183101631
2	1127	25253	953.62183101631
2	1129	25253.1	953.62183101631
2	1131	25253.2	953.62183101631
2	1133	25253.3	953.62183101631
2	1135	25253.4	953.62183101631
2	1137	25253.5	953.62183101631
2	1139	25253.6	953.62183101631
2	1141	25253.7	953.62183101631
2	1143	25253.8	953.62183101631
2	1145	25253.9	953.62183101631
2	1148	25254	953.62183101631
2	1150	25254.1	953.62183101631
2	1152	25254.2	953.62183101631
2	1154	25254.3	953.62183101631
2	1156	25254.4	953.62183101631
2	1158	25254.5	953.62183101631
2	1160	25254.6	953.62183101631
2	1162	25254.7	953.62183101631
2	1164	25254.8	953.62183101631
2	1166	25254.9	953.62183101631
2	1170	25255	953.62183101631
2	1172	25255.1	953.62183101631
2	1176	25255.2	953.62183101631
2	1178	25255.3	953.62183101631
2	1180	25255.4	953.61729956916
2	1182	25255.5	953.60823667486
2	1184	25255.6	953.59464233342
2	1186	25255.7	953.57651654482
2	1188	25255.8	953.55385930908
2	1190	25255.9	953.52667062619
2	1193	25256	953.49495049615
2	1195	25256.1	953.45869891896
2	1197	25256.2	953.41791589462
2	1199	25256.3	953.37260142314
2	1201	25256.4	953.3227555045
2	1203	25256.5	953.26837813872
2	1205	25256.6	953.20946932579
2	1207	25256.7	953.14602906571
2	1209	25256.8	953.07805735848
2	1211	25256.9	953.00555420411
2	1214	25257	952.92851960258
2	1216	25257.1	952.84695355391
2	1218	25257.2	952.76085605809
2	1220	25257.3	952.67022711512
2	1222	25257.4	952.575066725
2	1224	25257.5	952.47537488773
2	1226	25257.6	952.37115160331
2	1228	25257.7	952.26239687175
2	1230	25257.8	952.14911069303
2	1232	25257.9	952.03129306717
2	1236	25258	951.90894399416
2	1238	25258.1	951.782063474
2	1242	25258.2	951.65065150669
2	1244	25258.3	951.51470809224
2	1246	25258.4	951.37423323063
2	1248	25258.5	951.22922692188
2	1250	25258.6	951.07968916598
2	1252	25258.7	950.92561996293
2	1254	25258.8	950.76701931273
2	1256	25258.9	950.60388721538
2	1259	25259	950.43622367089
2	1261	25259.1	950.26402867924
2	1263	25259.2	950.08730224045
2	1265	25259.3	949.90604435451
2	1267	25259.4	949.72025502142
2	1269	25259.5	949.52993424118
2	1271	25259.6	949.33508201379
2	1273	25259.7	949.13569833926
2	1275	25259.8	948.93178321757
2	1277	25259.9	948.72333664874
2	1280	25260	948.51035863276
2	1282	25260.1	948.29284916963
2	1284	25260.2	948.07080825935
2	1286	25260.3	947.84423590192
2	1288	25260.4	947.61313209735
2	1290	25260.5	947.3772080089
2	1292	25260.6	947.13608453838
2	1294	25260.7	946.89041156841
2	1296	25260.8	946.640189099
2	1298	25260.9	946.38541713014
2	1302	25261	946.12609566185
2	1304	25261.1	945.8622246941
2	1308	25261.2	945.59380422692
2	1310	25261.3	945.32083426029
2	1312	25261.4	945.04331479422
2	1314	25261.5	944.7612458287
2	1316	25261.6	944.47462736374
2	1318	25261.7	944.18345939933
2	1320	25261.8	943.88774193548
2	1322	25261.9	943.58747497219
2	1325	25262	943.28617824397
2	1327	25262.1	942.99089121983
2	1329	25262.2	942.69126173945
2	1331	25262.3	942.38728980284
2	1333	25262.4	942.07897540999
2	1335	25262.5	941.7663185609
2	1337	25262.6	941.44931925557
2	1339	25262.7	941.12797749401
2	1341	25262.8	940.80229327621
2	1343	25262.9	940.47226660217
2	1346	25263	940.1378974719
2	1348	25263.1	939.79918588539
2	1350	25263.2	939.45613184264
2	1352	25263.3	939.10873534365
2	1354	25263.4	938.75699638842
2	1356	25263.5	938.40091497696
2	1358	25263.6	938.04049110926
2	1360	25263.7	937.67572478533
2	1362	25263.8	937.30661600515
2	1364	25263.9	936.93316476874
2	1367	25264	936.5553710761
2	1369	25264.1	936.17323492721
2	1371	25264.2	935.78979101211
2	1373	25264.3	935.4499954718
2	1375	25264.4	935.10642442548
2	1377	25264.5	934.75907787315
2	1379	25264.6	934.40795581482
2	1381	25264.7	934.05305825049
2	1383	25264.8	933.69438518016
2	1385	25264.9	933.33193660382
2	1388	25265	932.96571252148
2	1390	25265.1	932.59571293313
2	1392	25265.2	932.22193783879
2	1394	25265.3	931.84438723843

