version 2
run General-0-20200506-14:29:10-52006
attr configname General
attr datetime 20200506-14:29:10
attr experiment General
attr inifile omnetpp.ini
attr iterationvars ""
attr iterationvarsf ""
attr measurement ""
attr network Discharge
attr processid 52006
attr repetition 0
attr replication #0
attr resultdir veins-runall-output
attr runnumber 0
attr seedset 42
param *.playgroundSizeX 1400m
param *.playgroundSizeY 200m
param *.playgroundSizeZ 50m
param *.annotations.draw true
param *.world.useTorus false
param *.world.use2D false
param *.manager.updateInterval 1s
param *.manager.host "\"localhost\""
param *.manager.port 9999
param *.manager.moduleType "\"EMERGENCY_AMB=org.car2x.veins.nodes.Car *=org.car2x.veins.nodes.Car\""
param *.manager.moduleName "\"EMERGENCY_AMB=emergNode *=node\""
param *.manager.moduleDisplayString "\"EMERGENCY_AMB='i=emergency' *='i=veins/node/car;is=vs'\""
param *.manager.autoShutdown true
param *.manager.margin 25
param *.manager.launchConfig "xmldoc(\"discharge.launchd.xml\")"
param *.manager.trafficLightModuleType "\"org.car2x.veins.nodes.TrafficLight\""
param *.manager.trafficLightModuleName "\"trafficLight\""
param *.manager.trafficLightModuleDisplayString "\"i=trafficlight\""
param *.manager.trafficLightFilter "\"B\""
param *.trafficLight[*].mobility.x 0
param *.trafficLight[*].mobility.y 0
param *.trafficLight[*].mobility.z 3
param *.trafficLight[*].applType "\"QdpTrafficLightApp\""
param *.trafficLight[*].logicType "\"QdpTrafficLightLogic\""
param *.trafficLight[*].appl.headerLength "80 bit"
param *.trafficLight[*].appl.dataOnSch true
param *.trafficLight[*].appl.firstStepAt 0s
param *.trafficLight[*].appl.approachRoadID "\"A_B\""
param *.trafficLight[*].appl.approachDetIDs "\"B_e2\""
param *.trafficLight[*].nic.phy80211p.antennaOffsetZ "4.0 m"
param *.rsu[0].mobility.x 300
param *.rsu[0].mobility.y 30
param *.rsu[0].mobility.z 3
param *.rsu[*].applType "\"ForwarderAppl\""
param *.rsu[*].appl.headerLength "80 bit"
param *.rsu[*].appl.sendBeacons false
param *.rsu[*].appl.dataOnSch false
param *.rsu[*].appl.beaconInterval 1s
param *.rsu[*].appl.beaconUserPriority 7
param *.rsu[*].appl.dataUserPriority 5
param *.rsu[*].nic.phy80211p.antennaOffsetZ "0 m"
param *.connectionManager.sendDirect true
param *.connectionManager.maxInterfDist 2600m
param *.connectionManager.drawMaxIntfDist false
param *.**.nic.mac1609_4.useServiceChannel false
param *.**.nic.mac1609_4.txPower 20mW
param *.**.nic.mac1609_4.bitrate 6Mbps
param *.**.nic.phy80211p.minPowerLevel -110dBm
param *.**.nic.phy80211p.useNoiseFloor true
param *.**.nic.phy80211p.noiseFloor -98dBm
param *.**.nic.phy80211p.decider "xmldoc(\"config.xml\")"
param *.**.nic.phy80211p.analogueModels "xmldoc(\"config.xml\")"
param *.**.nic.phy80211p.usePropagationDelay true
param *.**.nic.phy80211p.antenna "xmldoc(\"antenna.xml\", \"/root/Antenna[@id='monopole']\")"
param *.node[*].nic.phy80211p.antennaOffsetY "0 m"
param *.node[*].nic.phy80211p.antennaOffsetZ "1.895 m"
param *.node[*].applType "\"org.car2x.veins.modules.application.traci.MyVeinsApp\""
param *.node[*].appl.sendBeacons false
param *.emergNode[*].applType "\"EmergencyAppl\""
param *.node[*].veinsmobilityType "\"org.car2x.veins.modules.mobility.traci.TraCIMobility\""
param *.node[*].veinsmobility.x 0
param *.node[*].veinsmobility.y 0
param *.node[*].veinsmobility.z 1.895
param *.node[*].veinsmobility.setHostSpeed false
param *.emergNode[*].veinsmobilityType "\"org.car2x.veins.modules.mobility.traci.TraCIMobility\""
param *.emergNode[*].veinsmobility.x 0
param *.emergNode[*].veinsmobility.y 0
param *.emergNode[*].veinsmobility.z 1.895
param *.emergNode[*].veinsmobility.accidentCount 0
param *.emergNode[*].veinsmobility.setHostSpeed true

vector 0 Discharge.node[0].veinsmobility posx ETV
vector 1 Discharge.node[0].veinsmobility posy ETV
vector 2 Discharge.node[1].veinsmobility posx ETV
vector 3 Discharge.node[1].veinsmobility posy ETV
vector 4 Discharge.node[2].veinsmobility posx ETV
vector 5 Discharge.node[2].veinsmobility posy ETV
vector 6 Discharge.node[0].veinsmobility speed ETV
vector 7 Discharge.node[1].veinsmobility speed ETV
vector 8 Discharge.node[0].veinsmobility acceleration ETV
vector 9 Discharge.node[0].veinsmobility co2emission ETV
vector 10 Discharge.node[1].veinsmobility acceleration ETV
vector 11 Discharge.node[1].veinsmobility co2emission ETV
vector 12 Discharge.node[2].veinsmobility speed ETV
vector 13 Discharge.node[3].veinsmobility posx ETV
vector 14 Discharge.node[3].veinsmobility posy ETV
vector 15 Discharge.node[2].veinsmobility acceleration ETV
vector 16 Discharge.node[2].veinsmobility co2emission ETV
vector 17 Discharge.node[3].veinsmobility speed ETV
vector 18 Discharge.node[3].veinsmobility acceleration ETV
vector 19 Discharge.node[3].veinsmobility co2emission ETV
vector 20 Discharge.node[4].veinsmobility posx ETV
vector 21 Discharge.node[4].veinsmobility posy ETV
vector 22 Discharge.node[4].veinsmobility speed ETV
vector 23 Discharge.node[5].veinsmobility posx ETV
vector 24 Discharge.node[5].veinsmobility posy ETV
vector 25 Discharge.node[4].veinsmobility acceleration ETV
vector 26 Discharge.node[4].veinsmobility co2emission ETV
vector 27 Discharge.node[5].veinsmobility speed ETV
vector 28 Discharge.node[5].veinsmobility acceleration ETV
vector 29 Discharge.node[5].veinsmobility co2emission ETV
vector 30 Discharge.node[6].veinsmobility posx ETV
vector 31 Discharge.node[6].veinsmobility posy ETV
vector 32 Discharge.node[6].veinsmobility speed ETV
vector 33 Discharge.node[6].veinsmobility acceleration ETV
vector 34 Discharge.node[6].veinsmobility co2emission ETV
vector 35 Discharge.node[7].veinsmobility posx ETV
vector 36 Discharge.node[7].veinsmobility posy ETV
vector 37 Discharge.node[7].veinsmobility speed ETV
vector 38 Discharge.node[8].veinsmobility posx ETV
vector 39 Discharge.node[8].veinsmobility posy ETV
vector 40 Discharge.node[7].veinsmobility acceleration ETV
vector 41 Discharge.node[7].veinsmobility co2emission ETV
vector 42 Discharge.node[8].veinsmobility speed ETV
vector 43 Discharge.node[8].veinsmobility acceleration ETV
vector 44 Discharge.node[8].veinsmobility co2emission ETV
vector 45 Discharge.node[9].veinsmobility posx ETV
vector 46 Discharge.node[9].veinsmobility posy ETV
vector 47 Discharge.node[9].veinsmobility speed ETV
vector 48 Discharge.node[9].veinsmobility acceleration ETV
vector 49 Discharge.node[9].veinsmobility co2emission ETV
vector 50 Discharge.node[10].veinsmobility posx ETV
vector 51 Discharge.node[10].veinsmobility posy ETV
vector 52 Discharge.node[10].veinsmobility speed ETV
vector 53 Discharge.node[11].veinsmobility posx ETV
vector 54 Discharge.node[11].veinsmobility posy ETV
vector 55 Discharge.node[10].veinsmobility acceleration ETV
vector 56 Discharge.node[10].veinsmobility co2emission ETV
vector 57 Discharge.node[11].veinsmobility speed ETV
vector 58 Discharge.node[11].veinsmobility acceleration ETV
vector 59 Discharge.node[11].veinsmobility co2emission ETV
vector 60 Discharge.node[12].veinsmobility posx ETV
vector 61 Discharge.node[12].veinsmobility posy ETV
vector 62 Discharge.node[12].veinsmobility speed ETV
vector 63 Discharge.node[12].veinsmobility acceleration ETV
vector 64 Discharge.node[12].veinsmobility co2emission ETV
vector 65 Discharge.emergNode[13].veinsmobility posx ETV
vector 66 Discharge.emergNode[13].veinsmobility posy ETV
vector 67 Discharge.emergNode[13].veinsmobility speed ETV
vector 68 Discharge.emergNode[13].veinsmobility acceleration ETV
vector 69 Discharge.emergNode[13].veinsmobility co2emission ETV
9	9	3	2.1897531864585
9	12	4	2.1934497845522
9	15	5	2.1951504400058
9	18	6	2.1958439936611
9	21	7	2.196022264838
9	24	8	2.1959292738837
9	27	9	2.1956852639369
9	30	10	2.195348497861
9	33	11	2.1949460535856
9	36	12	2.1944891517901
9	39	13	2.1939807568766
9	42	14	2.1934193109461
9	45	15	2.1928005246186
9	48	16	2.1921181819414
9	51	17	2.1913644333152
9	54	18	2.1905298079628
9	57	19	2.189603054959
9	60	20	2.1885708586847
9	63	21	2.1874174403706
9	66	22	2.1861240367031
9	69	23	2.1846682312022
9	72	24	2.1830230996607
9	75	25	2.1811561142905
9	78	26	2.1790277296414
9	81	27	2.176589543767
9	84	28	2.1737818863371
9	87	29	2.170530625346
9	90	30	2.1667428964866
9	93	31	2.1623013297407
9	96	32	2.1570561534872
9	99	33	2.1508142607633
9	102	34	2.1433238651751
9	105	35	2.1342526553225
9	108	36	2.1231562068015
9	111	37	2.1094315365295
9	114	38	2.0922475681583
9	117	39	2.0704389900462
9	120	40	2.0423408255791
9	123	41	2.0055248275441
9	126	42	1.9563695784851
9	129	43	1.8893426763496
9	132	44	1.7957750017044
9	135	45	1.6617297240375
9	138	46	1.4642756220686
9	141	47	1.1651355177826
9	144	48	0.973
9	147	49	0.973
9	150	50	0.973
9	153	51	0.973
9	156	52	0.973
9	159	53	0.973
9	162	54	0.973
9	165	55	0.973
9	168	56	0.973
9	171	57	0.973
9	174	58	0.973
9	177	59	0.973
9	180	60	0.973
9	183	61	0.973
9	186	62	0.973
9	189	63	0.973
9	192	64	0.973
9	195	65	0.973
9	198	66	0.973
9	201	67	0.973
9	204	68	0.973
9	207	69	0.973
9	210	70	0.973
9	213	71	0.973
9	216	72	0.973
9	219	73	0.973
9	222	74	0.973
9	225	75	0.973
9	228	76	0.973
9	231	77	0.973
9	234	78	0.973
9	237	79	0.973
9	240	80	0.973
9	243	81	0.973
9	246	82	0.973
9	249	83	0.973
9	252	84	0.973
9	255	85	0.973
9	258	86	0.973
9	261	87	0.973
9	264	88	0.973
9	267	89	0.973
9	270	90	0.973
9	273	91	0.973
9	276	92	0.973
9	279	93	0.973
9	282	94	0.973
9	285	95	0.973
9	288	96	0.973
9	291	97	0.973
9	294	98	0.973
9	297	99	0.973
9	300	100	0.973
9	303	101	0.973
9	306	102	0.973
9	309	103	0.973
9	312	104	0.973
9	315	105	0.973
9	318	106	0.973
9	321	107	0.973
9	324	108	0.973
9	327	109	0.973
9	330	110	0.973
9	333	111	0.973
9	336	112	0.973
9	339	113	0.973
9	342	114	0.973
9	345	115	0.973
9	348	116	0.973
9	351	117	0.973
9	354	118	0.973
9	357	119	0.973
9	360	120	0.973
9	363	121	0.973
9	367	122	0.973
9	370	123	0.973
9	373	124	0.973
9	376	125	0.973
9	379	126	0.973
9	382	127	0.973
9	385	128	0.973
9	388	129	0.973
9	391	130	0.973
9	394	131	0.973
9	397	132	0.973
9	400	133	0.973
9	403	134	0.973
9	406	135	0.973
9	409	136	0.973
9	412	137	0.973
9	415	138	0.973
9	418	139	0.973
9	421	140	0.973
9	424	141	0.973
9	427	142	0.973
9	430	143	0.973
9	433	144	0.973
9	436	145	0.973
9	439	146	0.973
9	442	147	0.973
9	445	148	0.973
9	448	149	0.973
9	451	150	0.973
9	454	151	0.973
9	457	152	0.973
9	460	153	0.973
9	463	154	0.973
9	466	155	0.973
9	469	156	0.973
9	472	157	0.973
9	475	158	0.973
9	478	159	0.973
9	481	160	0.973
9	484	161	0.973
9	487	162	0.973
9	490	163	0.973
9	493	164	0.973
9	496	165	0.973
9	499	166	0.973
9	502	167	0.973
9	505	168	0.973
9	508	169	0.973
9	511	170	0.973
9	514	171	0.973
9	517	172	0.973
9	520	173	0.973
9	523	174	0.973
9	526	175	0.973
9	529	176	0.973
9	532	177	0.973
9	535	178	0.973
9	538	179	0.973
9	541	180	0.973
9	544	181	0.973
9	547	182	0.973
9	550	183	0.973
9	553	184	0.973
9	556	185	0.973
9	559	186	0.973
9	562	187	0.973
9	565	188	0.973
9	568	189	0.973
9	571	190	0.973
9	574	191	0.973
9	577	192	0.973
9	580	193	0.973
9	583	194	0.973
9	586	195	0.973
9	589	196	0.973
9	592	197	0.973
9	595	198	0.973
9	598	199	0.973
9	601	200	0.973
9	604	201	0.973
9	791	202	0.973
9	978	203	0.973
9	1165	204	0.973
9	1352	205	0.973
9	1539	206	0.973
9	1726	207	0.973
9	1913	208	0.973
9	2101	209	0.973
9	2291	210	0.973
9	2485	211	0.973
9	2678	212	0.973
9	2872	213	0.973
9	3066	214	0.973
9	3264	215	0.973
9	3466	216	0.973
9	3667	217	0.973
9	3869	218	0.973
9	4071	219	0.973
9	4273	220	0.973
9	4475	221	0.973
9	4677	222	0.973
9	4880	223	2.8657969892316
9	5085	224	4.6102944739872
9	5287	225	6.2105184307273
9	5489	226	7.3054895133109
9	5691	227	7.4572959626007
9	5893	228	6.6160836450924
9	6095	229	5.296221421571
9	6297	230	4.0927488591153
9	6499	231	3.258120717503
9	6698	232	2.7617631482396
9	6898	233	2.4903829406513
9	7097	234	2.34844811497
9	7297	235	2.2758912935729
9	7496	236	2.2392278604559
9	7695	237	2.220809406598
9	7895	238	2.2115836493325
9	8093	239	2.2069692551169
9	8292	240	2.2046629895994
9	8487	241	2.203510744192
9	8683	242	2.2029351700563
9	8879	243	2.2026476832647
9	9075	244	2.2025040963993
9	9271	245	2.2024323827803
9	9464	246	2.2023965662407
9	9658	247	2.2023786781849
9	9851	248	2.2023697442779
9	10044	249	2.2023652823855
9	10236	250	2.2023630539686
9	10429	251	2.2023619410237
9	10621	252	2.2023613851824
9	10811	253	2.202361107577
9	11003	254	2.2023609689318
9	11193	255	2.2023608996878
9	11383	256	2.2023608651051
9	11570	257	2.2023608478333
8	9	3	-0.0028836245159223
8	12	4	-0.0018371234982943
8	15	5	-0.0013404127808414
8	18	6	-0.0011202362019986
8	21	7	-0.0010405582510842
8	24	8	-0.001033776749626
8	27	9	-0.001066469249837
8	30	10	-0.0011223181012454
8	33	11	-0.0011935980380819
8	36	12	-0.0012769366390124
8	39	13	-0.001371209177222
8	42	14	-0.0014765012992619
8	45	15	-0.001593607749431
8	48	16	-0.0017238023946451
8	51	17	-0.0018687483101356
8	54	18	-0.0020304836097154
8	57	19	-0.0022114524780843
8	60	20	-0.0024145682088683
8	63	21	-0.0026433043642964
8	66	22	-0.0029018157084533
8	69	23	-0.0031950945452159
8	72	24	-0.0035291717606825
8	75	25	-0.0039113760512137
8	78	26	-0.004350670222518
8	81	27	-0.004858090874599
8	84	28	-0.0054473283251806
8	87	29	-0.0061354988589386
8	90	30	-0.0069441837558752
8	93	31	-0.0079008428627976
8	96	32	-0.0090407608210938
8	99	33	-0.010409761359297
8	102	34	-0.012068045705757
8	105	35	-0.0140957028655
8	108	36	-0.016600749932472
8	111	37	-0.019731073731926
8	114	38	-0.023692512132643
8	117	39	-0.028776813435838
8	120	40	-0.035405873760343
8	123	41	-0.044203502481396
8	126	42	-0.05611505458536
8	129	43	-0.072612790257443
8	132	44	-0.096059526420417
8	135	45	-0.13037341220605
8	138	46	-0.18228010080844
8	141	47	-0.26372309644636
8	144	48	-0.39649069873865
8	147	49	-0.62044853664338
8	150	50	-1.0036179484495
8	153	51	-1.6293296835172
8	156	52	-2.4622070737514
8	159	53	-3.0506870108161
8	162	54	-2.7473891368533
8	165	55	-1.6850646850908
8	168	56	-0.80149715397014
8	171	57	0
8	174	58	0
8	177	59	0
8	180	60	0
8	183	61	0
8	186	62	0
8	189	63	0
8	192	64	0
8	195	65	0
8	198	66	0
8	201	67	0
8	204	68	0
8	207	69	0
8	210	70	0
8	213	71	0
8	216	72	0
8	219	73	0
8	222	74	0
8	225	75	0
8	228	76	0
8	231	77	0
8	234	78	0
8	237	79	0
8	240	80	0
8	243	81	0
8	246	82	0
8	249	83	0
8	252	84	0
8	255	85	0
8	258	86	0
8	261	87	0
8	264	88	0
8	267	89	0
8	270	90	0
8	273	91	0
8	276	92	0
8	279	93	0
8	282	94	0
8	285	95	0
8	288	96	0
8	291	97	0
8	294	98	0
8	297	99	0
8	300	100	0
8	303	101	0
8	306	102	0
8	309	103	0
8	312	104	0
8	315	105	0
8	318	106	0
8	321	107	0
8	324	108	0
8	327	109	0
8	330	110	0
8	333	111	0
8	336	112	0
8	339	113	0
8	342	114	0
8	345	115	0
8	348	116	0
8	351	117	0
8	354	118	0
8	357	119	0
8	360	120	0
8	363	121	0
8	367	122	0
8	370	123	0
8	373	124	0
8	376	125	0
8	379	126	0
8	382	127	0
8	385	128	0
8	388	129	0
8	391	130	0
8	394	131	0
8	397	132	0
8	400	133	0
8	403	134	0
8	406	135	0
8	409	136	0
8	412	137	0
8	415	138	0
8	418	139	0
8	421	140	0
8	424	141	0
8	427	142	0
8	430	143	0
8	433	144	0
8	436	145	0
8	439	146	0
8	442	147	0
8	445	148	0
8	448	149	0
8	451	150	0
8	454	151	0
8	457	152	0
8	460	153	0
8	463	154	0
8	466	155	0
8	469	156	0
8	472	157	0
8	475	158	0
8	478	159	0
8	481	160	0
8	484	161	0
8	487	162	0
8	490	163	0
8	493	164	0
8	496	165	0
8	499	166	0
8	502	167	0
8	505	168	0
8	508	169	0
8	511	170	0
8	514	171	0
8	517	172	0
8	520	173	0
8	523	174	0
8	526	175	0
8	529	176	0
8	532	177	0
8	535	178	0
8	538	179	0
8	541	180	0
8	544	181	0
8	547	182	0
8	550	183	0
8	553	184	0
8	556	185	0
8	559	186	0
8	562	187	0
8	565	188	0
8	568	189	0
8	571	190	0
8	574	191	0
8	577	192	0
8	580	193	0
8	583	194	0
8	586	195	0
8	589	196	0
8	592	197	0
8	595	198	0
8	598	199	0
8	601	200	0
8	604	201	0
8	791	202	0
8	978	203	0
8	1165	204	0
8	1352	205	0
8	1539	206	0
8	1726	207	0
8	1913	208	0
8	2101	209	0
8	2291	210	0
8	2485	211	0
8	2678	212	0
8	2872	213	0
8	3066	214	0
8	3264	215	0
8	3466	216	0
8	3667	217	0
8	3869	218	0
8	4071	219	0
8	4273	220	0
8	4475	221	0
8	4677	222	0
8	4880	223	2.5996848908705
8	5085	224	2.5887994713945
8	5287	225	2.5219092487602
8	5489	226	2.3233424866063
8	5691	227	1.9437469847233
8	5893	228	1.434364670304
8	6095	229	0.93195942522629
8	6297	230	0.54605652512366
8	6499	231	0.29827462531833
8	6698	232	0.15624678076484
8	6898	233	0.079982115617492
8	7097	234	0.040449263073913
8	7297	235	0.020329614632232
8	7496	236	0.010185480394853
8	7695	237	0.0050950328774935
8	7895	238	0.0025466440692057
8	8093	239	0.0012723813897484
8	8292	240	0.0006355947352823
8	8487	241	0.0003174682274949
8	8683	242	0.00015856187023466
8	8879	243	7.9192950053653e-05
8	9075	244	3.9552043212154e-05
8	9271	245	1.9753708871306e-05
8	9464	246	9.8656802904884e-06
8	9658	247	4.9272518118926e-06
8	9851	248	2.460833016471e-06
8	10044	249	1.2290211799382e-06
8	10236	250	6.138135972833e-07
8	10429	251	3.0655866822826e-07
8	10621	252	1.5310545720126e-07
8	10811	253	7.6465886067467e-08
8	11003	254	3.8189574169678e-08
8	11193	255	1.9073125301361e-08
8	11383	256	9.525745525707e-09
8	11570	257	4.757469085348e-09
6	6	2	15.492343509364
6	9	3	15.489459884848
6	12	4	15.48762276135
6	15	5	15.486282348569
6	18	6	15.485162112367
6	21	7	15.484121554116
6	24	8	15.483087777366
6	27	9	15.482021308116
6	30	10	15.480898990015
6	33	11	15.479705391977
6	36	12	15.478428455338
6	39	13	15.477057246161
6	42	14	15.475580744862
6	45	15	15.473987137112
6	48	16	15.472263334718
6	51	17	15.470394586407
6	54	18	15.468364102798
6	57	19	15.46615265032
6	60	20	15.463738082111
6	63	21	15.461094777746
6	66	22	15.458192962038
6	69	23	15.454997867493
6	72	24	15.451468695732
6	75	25	15.447557319681
6	78	26	15.443206649458
6	81	27	15.438348558584
6	84	28	15.432901230259
6	87	29	15.4267657314
6	90	30	15.419821547644
6	93	31	15.411920704781
6	96	32	15.40287994396
6	99	33	15.392470182601
6	102	34	15.380402136895
6	105	35	15.366306434029
6	108	36	15.349705684097
6	111	37	15.329974610365
6	114	38	15.306282098232
6	117	39	15.277505284796
6	120	40	15.242099411036
6	123	41	15.197895908555
6	126	42	15.141780853969
6	129	43	15.069168063712
6	132	44	14.973108537291
6	135	45	14.842735125085
6	138	46	14.660455024277
6	141	47	14.396731927831
6	144	48	14.000241229092
6	147	49	13.379792692449
6	150	50	12.376174743999
6	153	51	10.746845060482
6	156	52	8.2846379867304
6	159	53	5.2339509759142
6	162	54	2.4865618390609
6	165	55	0.80149715397014
6	168	56	0
6	171	57	0
6	174	58	0
6	177	59	0
6	180	60	0
6	183	61	0
6	186	62	0
6	189	63	0
6	192	64	0
6	195	65	0
6	198	66	0
6	201	67	0
6	204	68	0
6	207	69	0
6	210	70	0
6	213	71	0
6	216	72	0
6	219	73	0
6	222	74	0
6	225	75	0
6	228	76	0
6	231	77	0
6	234	78	0
6	237	79	0
6	240	80	0
6	243	81	0
6	246	82	0
6	249	83	0
6	252	84	0
6	255	85	0
6	258	86	0
6	261	87	0
6	264	88	0
6	267	89	0
6	270	90	0
6	273	91	0
6	276	92	0
6	279	93	0
6	282	94	0
6	285	95	0
6	288	96	0
6	291	97	0
6	294	98	0
6	297	99	0
6	300	100	0
6	303	101	0
6	306	102	0
6	309	103	0
6	312	104	0
6	315	105	0
6	318	106	0
6	321	107	0
6	324	108	0
6	327	109	0
6	330	110	0
6	333	111	0
6	336	112	0
6	339	113	0
6	342	114	0
6	345	115	0
6	348	116	0
6	351	117	0
6	354	118	0
6	357	119	0
6	360	120	0
6	363	121	0
6	367	122	0
6	370	123	0
6	373	124	0
6	376	125	0
6	379	126	0
6	382	127	0
6	385	128	0
6	388	129	0
6	391	130	0
6	394	131	0
6	397	132	0
6	400	133	0
6	403	134	0
6	406	135	0
6	409	136	0
6	412	137	0
6	415	138	0
6	418	139	0
6	421	140	0
6	424	141	0
6	427	142	0
6	430	143	0
6	433	144	0
6	436	145	0
6	439	146	0
6	442	147	0
6	445	148	0
6	448	149	0
6	451	150	0
6	454	151	0
6	457	152	0
6	460	153	0
6	463	154	0
6	466	155	0
6	469	156	0
6	472	157	0
6	475	158	0
6	478	159	0
6	481	160	0
6	484	161	0
6	487	162	0
6	490	163	0
6	493	164	0
6	496	165	0
6	499	166	0
6	502	167	0
6	505	168	0
6	508	169	0
6	511	170	0
6	514	171	0
6	517	172	0
6	520	173	0
6	523	174	0
6	526	175	0
6	529	176	0
6	532	177	0
6	535	178	0
6	538	179	0
6	541	180	0
6	544	181	0
6	547	182	0
6	550	183	0
6	553	184	0
6	556	185	0
6	559	186	0
6	562	187	0
6	565	188	0
6	568	189	0
6	571	190	0
6	574	191	0
6	577	192	0
6	580	193	0
6	583	194	0
6	586	195	0
6	589	196	0
6	592	197	0
6	595	198	0
6	598	199	0
6	601	200	0
6	604	201	0
6	791	202	0
6	978	203	0
6	1165	204	0
6	1352	205	0
6	1539	206	0
6	1726	207	0
6	1913	208	0
6	2101	209	0
6	2291	210	0
6	2485	211	0
6	2678	212	0
6	2872	213	0
6	3066	214	0
6	3264	215	0
6	3466	216	0
6	3667	217	0
6	3869	218	0
6	4071	219	0
6	4273	220	0
6	4475	221	0
6	4677	222	0
6	4880	223	2.5996848908705
6	5085	224	5.188484362265
6	5287	225	7.7103936110252
6	5489	226	10.033736097631
6	5691	227	11.977483082355
6	5893	228	13.411847752659
6	6095	229	14.343807177885
6	6297	230	14.889863703009
6	6499	231	15.188138328327
6	6698	232	15.344385109092
6	6898	233	15.424367224709
6	7097	234	15.464816487783
6	7297	235	15.485146102416
6	7496	236	15.49533158281
6	7695	237	15.500426615688
6	7895	238	15.502973259757
6	8093	239	15.504245641147
6	8292	240	15.504881235882
6	8487	241	15.50519870411
6	8683	242	15.50535726598
6	8879	243	15.50543645893
6	9075	244	15.505476010973
6	9271	245	15.505495764682
6	9464	246	15.505505630362
6	9658	247	15.505510557614
6	9851	248	15.505513018447
6	10044	249	15.505514247468
6	10236	250	15.505514861282
6	10429	251	15.505515167841
6	10621	252	15.505515320946
6	10811	253	15.505515397412
6	11003	254	15.505515435601
6	11193	255	15.505515454675
6	11383	256	15.5055154642
6	11570	257	15.505515468958
1	3	1	26.6
1	6	2	26.6
1	9	3	26.6
1	12	4	26.6
1	15	5	26.6
1	18	6	26.6
1	21	7	26.6
1	24	8	26.6
1	27	9	26.6
1	30	10	26.6
1	33	11	26.6
1	36	12	26.6
1	39	13	26.6
1	42	14	26.6
1	45	15	26.6
1	48	16	26.6
1	51	17	26.6
1	54	18	26.6
1	57	19	26.6
1	60	20	26.6
1	63	21	26.6
1	66	22	26.6
1	69	23	26.6
1	72	24	26.6
1	75	25	26.6
1	78	26	26.6
1	81	27	26.6
1	84	28	26.6
1	87	29	26.6
1	90	30	26.6
1	93	31	26.6
1	96	32	26.6
1	99	33	26.6
1	102	34	26.6
1	105	35	26.6
1	108	36	26.6
1	111	37	26.6
1	114	38	26.6
1	117	39	26.6
1	120	40	26.6
1	123	41	26.6
1	126	42	26.6
1	129	43	26.6
1	132	44	26.6
1	135	45	26.6
1	138	46	26.6
1	141	47	26.6
1	144	48	26.6
1	147	49	26.6
1	150	50	26.6
1	153	51	26.6
1	156	52	26.6
1	159	53	26.6
1	162	54	26.6
1	165	55	26.6
1	168	56	26.6
1	171	57	26.6
1	174	58	26.6
1	177	59	26.6
1	180	60	26.6
1	183	61	26.6
1	186	62	26.6
1	189	63	26.6
1	192	64	26.6
1	195	65	26.6
1	198	66	26.6
1	201	67	26.6
1	204	68	26.6
1	207	69	26.6
1	210	70	26.6
1	213	71	26.6
1	216	72	26.6
1	219	73	26.6
1	222	74	26.6
1	225	75	26.6
1	228	76	26.6
1	231	77	26.6
1	234	78	26.6
1	237	79	26.6
1	240	80	26.6
1	243	81	26.6
1	246	82	26.6
1	249	83	26.6
1	252	84	26.6
1	255	85	26.6
1	258	86	26.6
1	261	87	26.6
1	264	88	26.6
1	267	89	26.6
1	270	90	26.6
1	273	91	26.6
1	276	92	26.6
1	279	93	26.6
1	282	94	26.6
1	285	95	26.6
1	288	96	26.6
1	291	97	26.6
1	294	98	26.6
1	297	99	26.6
1	300	100	26.6
1	303	101	26.6
1	306	102	26.6
1	309	103	26.6
1	312	104	26.6
1	315	105	26.6
1	318	106	26.6
1	321	107	26.6
1	324	108	26.6
1	327	109	26.6
1	330	110	26.6
1	333	111	26.6
1	336	112	26.6
1	339	113	26.6
1	342	114	26.6
1	345	115	26.6
1	348	116	26.6
1	351	117	26.6
1	354	118	26.6
1	357	119	26.6
1	360	120	26.6
1	363	121	26.6
1	367	122	26.6
1	370	123	26.6
1	373	124	26.6
1	376	125	26.6
1	379	126	26.6
1	382	127	26.6
1	385	128	26.6
1	388	129	26.6
1	391	130	26.6
1	394	131	26.6
1	397	132	26.6
1	400	133	26.6
1	403	134	26.6
1	406	135	26.6
1	409	136	26.6
1	412	137	26.6
1	415	138	26.6
1	418	139	26.6
1	421	140	26.6
1	424	141	26.6
1	427	142	26.6
1	430	143	26.6
1	433	144	26.6
1	436	145	26.6
1	439	146	26.6
1	442	147	26.6
1	445	148	26.6
1	448	149	26.6
1	451	150	26.6
1	454	151	26.6
1	457	152	26.6
1	460	153	26.6
1	463	154	26.6
1	466	155	26.6
1	469	156	26.6
1	472	157	26.6
1	475	158	26.6
1	478	159	26.6
1	481	160	26.6
1	484	161	26.6
1	487	162	26.6
1	490	163	26.6
1	493	164	26.6
1	496	165	26.6
1	499	166	26.6
1	502	167	26.6
1	505	168	26.6
1	508	169	26.6
1	511	170	26.6
1	514	171	26.6
1	517	172	26.6
1	520	173	26.6
1	523	174	26.6
1	526	175	26.6
1	529	176	26.6
1	532	177	26.6
1	535	178	26.6
1	538	179	26.6
1	541	180	26.6
1	544	181	26.6
1	547	182	26.6
1	550	183	26.6
1	553	184	26.6
1	556	185	26.6
1	559	186	26.6
1	562	187	26.6
1	565	188	26.6
1	568	189	26.6
1	571	190	26.6
1	574	191	26.6
1	577	192	26.6
1	580	193	26.6
1	583	194	26.6
1	586	195	26.6
1	589	196	26.6
1	592	197	26.6
1	595	198	26.6
1	598	199	26.6
1	601	200	26.6
1	604	201	26.6
1	791	202	26.6
1	978	203	26.6
1	1165	204	26.6
1	1352	205	26.6
1	1539	206	26.6
1	1726	207	26.6
1	1913	208	26.6
1	2101	209	26.6
1	2291	210	26.6
1	2485	211	26.6
1	2678	212	26.6
1	2872	213	26.6
1	3066	214	26.6
1	3264	215	26.6
1	3466	216	26.6
1	3667	217	26.6
1	3869	218	26.6
1	4071	219	26.6
1	4273	220	26.6
1	4475	221	26.6
1	4677	222	26.6
1	4880	223	26.6
1	5085	224	26.6
1	5287	225	26.6
1	5489	226	26.6
1	5691	227	26.6
1	5893	228	26.6
1	6095	229	26.6
1	6297	230	26.6
1	6499	231	26.6
1	6698	232	26.6
1	6898	233	26.6
1	7097	234	26.6
1	7297	235	26.6
1	7496	236	26.6
1	7695	237	26.6
1	7895	238	26.6
1	8093	239	26.6
1	8292	240	26.6
1	8487	241	26.6
1	8683	242	26.6
1	8879	243	26.6
1	9075	244	26.6
1	9271	245	26.6
1	9464	246	26.6
1	9658	247	26.6
1	9851	248	26.6
1	10044	249	26.6
1	10236	250	26.6
1	10429	251	26.6
1	10621	252	26.6
1	10811	253	26.6
1	11003	254	26.6
1	11193	255	26.6
1	11383	256	26.6
1	11570	257	26.6
0	3	1	43.350545222654
0	6	2	43.350545222654
0	9	3	58.844906660522
0	12	4	74.335543841847
0	15	5	89.823935286639
0	18	6	105.31079405558
0	21	7	120.7964493014
0	24	8	136.28103623258
0	27	9	151.76459061871
0	30	10	167.24709565432
0	33	11	182.7285050066
0	36	12	198.20875392532
0	39	13	213.68776433431
0	42	14	229.16544684895
0	45	15	244.64170117724
0	48	16	260.11641561665
0	51	17	275.58946598402
0	54	18	291.06071412399
0	57	19	306.53000604064
0	60	20	321.99716964005
0	63	21	337.46201203444
0	66	22	352.92431632942
0	69	23	368.38383778714
0	72	24	383.84029922541
0	75	25	399.29338547292
0	78	26	414.74273664882
0	81	27	430.18793996678
0	84	28	445.62851967299
0	87	29	461.06392460491
0	90	30	476.49351269
0	93	31	491.91653147294
0	96	32	507.33209343683
0	99	33	522.73914442768
0	102	34	538.13642283697
0	105	35	553.52240624579
0	108	36	568.8952408282
0	111	37	584.25264670018
0	114	38	599.59178916992
0	117	39	614.90910080518
0	120	40	630.20003119831
0	123	41	645.45868820043
0	126	42	660.67731246352
0	129	43	675.84548942449
0	132	44	690.94893614647
0	135	45	705.96757873891
0	138	46	720.87240727188
0	141	47	735.62015290333
0	144	48	750.14396216866
0	147	49	764.33655025874
0	150	50	778.01931694097
0	153	51	790.88761949941
0	156	52	802.43053478213
0	159	53	811.89276690824
0	162	54	818.51786292943
0	165	55	822.17419995725
0	168	56	823.63583645858
0	171	57	823.99199708631
0	174	58	823.99199708631
0	177	59	823.99199708631
0	180	60	823.99199708631
0	183	61	823.99199708631
0	186	62	823.99199708631
0	189	63	823.99199708631
0	192	64	823.99199708631
0	195	65	823.99199708631
0	198	66	823.99199708631
0	201	67	823.99199708631
0	204	68	823.99199708631
0	207	69	823.99199708631
0	210	70	823.99199708631
0	213	71	823.99199708631
0	216	72	823.99199708631
0	219	73	823.99199708631
0	222	74	823.99199708631
0	225	75	823.99199708631
0	228	76	823.99199708631
0	231	77	823.99199708631
0	234	78	823.99199708631
0	237	79	823.99199708631
0	240	80	823.99199708631
0	243	81	823.99199708631
0	246	82	823.99199708631
0	249	83	823.99199708631
0	252	84	823.99199708631
0	255	85	823.99199708631
0	258	86	823.99199708631
0	261	87	823.99199708631
0	264	88	823.99199708631
0	267	89	823.99199708631
0	270	90	823.99199708631
0	273	91	823.99199708631
0	276	92	823.99199708631
0	279	93	823.99199708631
0	282	94	823.99199708631
0	285	95	823.99199708631
0	288	96	823.99199708631
0	291	97	823.99199708631
0	294	98	823.99199708631
0	297	99	823.99199708631
0	300	100	823.99199708631
0	303	101	823.99199708631
0	306	102	823.99199708631
0	309	103	823.99199708631
0	312	104	823.99199708631
0	315	105	823.99199708631
0	318	106	823.99199708631
0	321	107	823.99199708631
0	324	108	823.99199708631
0	327	109	823.99199708631
0	330	110	823.99199708631
0	333	111	823.99199708631
0	336	112	823.99199708631
0	339	113	823.99199708631
0	342	114	823.99199708631
0	345	115	823.99199708631
0	348	116	823.99199708631
0	351	117	823.99199708631
0	354	118	823.99199708631
0	357	119	823.99199708631
0	360	120	823.99199708631
0	363	121	823.99199708631
0	367	122	823.99199708631
0	370	123	823.99199708631
0	373	124	823.99199708631
0	376	125	823.99199708631
0	379	126	823.99199708631
0	382	127	823.99199708631
0	385	128	823.99199708631
0	388	129	823.99199708631
0	391	130	823.99199708631
0	394	131	823.99199708631
0	397	132	823.99199708631
0	400	133	823.99199708631
0	403	134	823.99199708631
0	406	135	823.99199708631
0	409	136	823.99199708631
0	412	137	823.99199708631
0	415	138	823.99199708631
0	418	139	823.99199708631
0	421	140	823.99199708631
0	424	141	823.99199708631
0	427	142	823.99199708631
0	430	143	823.99199708631
0	433	144	823.99199708631
0	436	145	823.99199708631
0	439	146	823.99199708631
0	442	147	823.99199708631
0	445	148	823.99199708631
0	448	149	823.99199708631
0	451	150	823.99199708631
0	454	151	823.99199708631
0	457	152	823.99199708631
0	460	153	823.99199708631
0	463	154	823.99199708631
0	466	155	823.99199708631
0	469	156	823.99199708631
0	472	157	823.99199708631
0	475	158	823.99199708631
0	478	159	823.99199708631
0	481	160	823.99199708631
0	484	161	823.99199708631
0	487	162	823.99199708631
0	490	163	823.99199708631
0	493	164	823.99199708631
0	496	165	823.99199708631
0	499	166	823.99199708631
0	502	167	823.99199708631
0	505	168	823.99199708631
0	508	169	823.99199708631
0	511	170	823.99199708631
0	514	171	823.99199708631
0	517	172	823.99199708631
0	520	173	823.99199708631
0	523	174	823.99199708631
0	526	175	823.99199708631
0	529	176	823.99199708631
0	532	177	823.99199708631
0	535	178	823.99199708631
0	538	179	823.99199708631
0	541	180	823.99199708631
0	544	181	823.99199708631
0	547	182	823.99199708631
0	550	183	823.99199708631
0	553	184	823.99199708631
0	556	185	823.99199708631
0	559	186	823.99199708631
0	562	187	823.99199708631
0	565	188	823.99199708631
0	568	189	823.99199708631
0	571	190	823.99199708631
0	574	191	823.99199708631
0	577	192	823.99199708631
0	580	193	823.99199708631
0	583	194	823.99199708631
0	586	195	823.99199708631
0	589	196	823.99199708631
0	592	197	823.99199708631
0	595	198	823.99199708631
0	598	199	823.99199708631
0	601	200	823.99199708631
0	604	201	823.99199708631
0	791	202	823.99199708631
0	978	203	823.99199708631
0	1165	204	823.99199708631
0	1352	205	823.99199708631
0	1539	206	823.99199708631
0	1726	207	823.99199708631
0	1913	208	823.99199708631
0	2101	209	823.99199708631
0	2291	210	823.99199708631
0	2485	211	823.99199708631
0	2678	212	823.99199708631
0	2872	213	823.99199708631
0	3066	214	823.99199708631
0	3264	215	823.99199708631
0	3466	216	823.99199708631
0	3667	217	823.99199708631
0	3869	218	823.99199708631
0	4071	219	823.99199708631
0	4273	220	823.99199708631
0	4475	221	823.99199708631
0	4677	222	823.99199708631
0	4880	223	823.99199708631
0	5085	224	825.32193028111
0	5287	225	829.34765163357
0	5489	226	835.93293176
0	5691	227	844.94485096831
0	5893	228	856.08602027044
0	6095	229	868.8963830364
0	6297	230	882.85843882475
0	6499	231	897.5284534823
0	6698	232	912.59779796448
0	6898	233	927.88033601923
0	7097	234	943.27314773325
0	7297	235	958.72203274561
0	7496	236	974.19917866368
0	7695	237	989.69050376022
0	7895	238	1005.1889266677
0	8093	239	1020.6908985257
0	8292	240	1036.1946438632
0	8487	241	1051.6992751884
0	8683	242	1067.2043490682
0	8879	243	1082.7096439902
0	9075	244	1098.2150493119
0	9271	245	1113.7205097717
0	9464	246	1129.2259977696
0	9658	247	1144.731499521
0	9851	248	1160.2370081413
0	10044	249	1175.7425201922
0	10236	250	1191.2480339564
0	10429	251	1206.7535485764
0	10621	252	1222.2590636237
0	10811	253	1237.7645788844
0	11003	254	1253.2700942518
0	11193	255	1268.7756096723
0	11383	256	1284.2811251195
0	11570	257	1299.78664058
11	9	3	4.6098717972874
11	12	4	3.9678266395532
11	15	5	3.3740378574917
11	18	6	2.9487373770619
11	21	7	2.6725682755071
11	24	8	2.4983636883359
11	27	9	2.387549683837
11	30	10	2.3150271040445
11	33	11	2.2657576669732
11	36	12	2.2309530907523
11	39	13	2.2054559685974
11	42	14	2.1861763457267
11	45	15	2.1712062889225
11	48	16	2.1593260528149
11	51	17	2.1497274362546
11	54	18	2.1418562504583
11	57	19	2.1353204275808
11	60	20	2.1298348472293
11	63	21	2.1251871536368
11	66	22	2.1212158915247
11	69	23	2.1177960824141
11	72	24	2.1148294296867
11	75	25	2.1122374870597
11	78	26	2.1099567751409
11	81	27	2.1079352082422
11	84	28	2.1061294183096
11	87	29	2.1045026995089
11	90	30	2.1030233814292
11	93	31	2.1016634909344
11	96	32	2.1003975934603
11	99	33	2.0992017197947
11	102	34	2.0980522863081
11	105	35	2.0969249044445
11	108	36	2.0957929447704
11	111	37	2.0946256626313
11	114	38	2.0933855881576
11	117	39	2.0920246979031
11	120	40	2.0904785505228
11	123	41	2.0886569477912
11	126	42	2.0864284907649
11	129	43	2.0818110135017
11	132	44	2.0427288607053
11	135	45	2.0025714068838
11	138	46	1.9676811317354
11	141	47	1.930069708117
11	144	48	1.8835913185828
11	147	49	1.8216790347534
11	150	50	1.7353586527846
11	153	51	1.610700778512
11	156	52	1.4247451278735
11	159	53	1.1386340351627
11	162	54	0.973
11	165	55	0.973
11	168	56	0.973
11	171	57	0.973
11	174	58	0.973
11	177	59	0.973
11	180	60	0.973
11	183	61	0.973
11	186	62	0.973
11	189	63	0.973
11	192	64	0.973
11	195	65	0.973
11	198	66	0.973
11	201	67	0.973
11	204	68	0.973
11	207	69	0.973
11	210	70	0.973
11	213	71	0.973
11	216	72	0.973
11	219	73	0.973
11	222	74	0.973
11	225	75	0.973
11	228	76	0.973
11	231	77	0.973
11	234	78	0.973
11	237	79	0.973
11	240	80	0.973
11	243	81	0.973
11	246	82	0.973
11	249	83	0.973
11	252	84	0.973
11	255	85	0.973
11	258	86	0.973
11	261	87	0.973
11	264	88	0.973
11	267	89	0.973
11	270	90	0.973
11	273	91	0.973
11	276	92	0.973
11	279	93	0.973
11	282	94	0.973
11	285	95	0.973
11	288	96	0.973
11	291	97	0.973
11	294	98	0.973
11	297	99	0.973
11	300	100	0.973
11	303	101	0.973
11	306	102	0.973
11	309	103	0.973
11	312	104	0.973
11	315	105	0.973
11	318	106	0.973
11	321	107	0.973
11	324	108	0.973
11	327	109	0.973
11	330	110	0.973
11	333	111	0.973
11	336	112	0.973
11	339	113	0.973
11	342	114	0.973
11	345	115	0.973
11	348	116	0.973
11	351	117	0.973
11	354	118	0.973
11	357	119	0.973
11	360	120	0.973
11	363	121	0.973
11	367	122	0.973
11	370	123	0.973
11	373	124	0.973
11	376	125	0.973
11	379	126	0.973
11	382	127	0.973
11	385	128	0.973
11	388	129	0.973
11	391	130	0.973
11	394	131	0.973
11	397	132	0.973
11	400	133	0.973
11	403	134	0.973
11	406	135	0.973
11	409	136	0.973
11	412	137	0.973
11	415	138	0.973
11	418	139	0.973
11	421	140	0.973
11	424	141	0.973
11	427	142	0.973
11	430	143	0.973
11	433	144	0.973
11	436	145	0.973
11	439	146	0.973
11	442	147	0.973
11	445	148	0.973
11	448	149	0.973
11	451	150	0.973
11	454	151	0.973
11	457	152	0.973
11	460	153	0.973
11	463	154	0.973
11	466	155	0.973
11	469	156	0.973
11	472	157	0.973
11	475	158	0.973
11	478	159	0.973
11	481	160	0.973
11	484	161	0.973
11	487	162	0.973
11	490	163	0.973
11	493	164	0.973
11	496	165	0.973
11	499	166	0.973
11	502	167	0.973
11	505	168	0.973
11	508	169	0.973
11	511	170	0.973
11	514	171	0.973
11	517	172	0.973
11	520	173	0.973
11	523	174	0.973
11	526	175	0.973
11	529	176	0.973
11	532	177	0.973
11	535	178	0.973
11	538	179	0.973
11	541	180	0.973
11	544	181	0.973
11	547	182	0.973
11	550	183	0.973
11	553	184	0.973
11	556	185	0.973
11	559	186	0.973
11	562	187	0.973
11	565	188	0.973
11	568	189	0.973
11	571	190	0.973
11	574	191	0.973
11	577	192	0.973
11	580	193	0.973
11	583	194	0.973
11	586	195	0.973
11	589	196	0.973
11	592	197	0.973
11	595	198	0.973
11	598	199	0.973
11	601	200	0.973
11	604	201	0.973
11	791	202	0.973
11	978	203	0.973
11	1165	204	0.973
11	1352	205	0.973
11	1539	206	0.973
11	1726	207	0.973
11	1913	208	0.973
11	2101	209	0.973
11	2291	210	0.973
11	2485	211	0.973
11	2678	212	0.973
11	2872	213	0.973
11	3066	214	0.973
11	3264	215	0.973
11	3466	216	0.973
11	3667	217	0.973
11	3869	218	0.973
11	4071	219	0.973
11	4273	220	0.973
11	4475	221	0.973
11	4677	222	0.973
11	4880	223	1.1856392424001
11	5085	224	1.9202984684221
11	5287	225	3.201426878068
11	5489	226	4.6066003956418
11	5691	227	5.7644966258579
11	5893	228	6.2443443595156
11	6095	229	5.8429279190395
11	6297	230	4.8755015589179
11	6499	231	3.8800507915835
11	6698	232	3.1519517947587
11	6898	233	2.7062404513547
11	7097	234	2.4558146417375
11	7297	235	2.319180084732
11	7496	236	2.2440774199888
11	7695	237	2.2013665924194
11	7895	238	2.1757253684882
11	8093	239	2.1592695360952
11	8292	240	2.1479468743948
11	8487	241	2.1396471222212
11	8683	242	2.1332426252243
11	8879	243	2.1281072853267
11	9075	244	2.1238756646864
11	9271	245	2.1203216005787
11	9464	246	2.1172962392456
11	9658	247	2.1146957502684
11	9851	248	2.1124440122493
11	10044	249	2.1104829674251
11	10236	250	2.1087669923832
11	10429	251	2.107259435737
11	10621	252	2.1059303704577
11	10811	253	2.1047550587241
11	11003	254	2.1037128562088
11	11193	255	2.1027864014863
11	11383	256	2.1019609993932
11	11570	257	2.1012241418294
11	11757	258	2.2295289424625
11	11933	259	2.3724044060406
11	12109	260	2.2308114089159
11	12285	261	2.1616628825578
11	12464	262	2.128317439589
10	9	3	0.9837454996371
10	12	4	0.6940694330967
10	15	5	0.46425692892159
10	18	6	0.31045575761523
10	21	7	0.21371970690478
10	24	8	0.15343812514446
10	27	9	0.11508971284042
10	30	10	0.089789154538785
10	33	11	0.072372401144074
10	36	12	0.059867629336527
10	39	13	0.050542337873619
10	42	14	0.043359576210044
10	45	15	0.037677304645316
10	48	16	0.03308293184198
10	51	17	0.029301253931314
10	54	18	0.026142164214566
10	57	19	0.023470137932694
10	60	20	0.021185864964762
10	63	21	0.019214827355574
10	66	22	0.017499960487964
10	69	23	0.015996788846465
10	72	24	0.014670107603587
10	75	25	0.0134916585073
10	78	26	0.012438462749948
10	81	27	0.011491598253146
10	84	28	0.010635283343483
10	87	29	0.0098561743901087
10	90	30	0.0091428133650844
10	93	31	0.0084851790473657
10	96	32	0.0078743064122211
10	99	33	0.0073019446191278
10	102	34	0.0067602258020472
10	105	35	0.006241314537256
10	108	36	0.005737000385146
10	111	37	0.005238180813798
10	114	38	0.0047341542134056
10	117	39	0.004211593124678
10	120	40	0.0036529776931697
10	123	41	0.0030341014319895
10	126	42	0.0023199378642804
10	129	43	0.00095830736860059
10	132	44	-0.010020074348969
10	135	45	-0.021006348148338
10	138	46	-0.030239056590995
10	141	47	-0.040032547992904
10	144	48	-0.052144531394092
10	147	49	-0.068452598814373
10	150	50	-0.091565548703645
10	153	51	-0.12565465675086
10	156	52	-0.17789870757826
10	159	53	-0.26125404821858
10	162	54	-0.41679981957785
10	165	55	-0.8793307104442
10	168	56	-1.5305014384626
10	171	57	-2.3411486714442
10	174	58	-2.9438968502034
10	177	59	-2.7624232020852
10	180	60	-1.7547451266251
10	183	61	-0.71890922378245
10	186	62	-0.15496576054482
10	189	63	0
10	192	64	0
10	195	65	0
10	198	66	0
10	201	67	0
10	204	68	0
10	207	69	0
10	210	70	0
10	213	71	0
10	216	72	0
10	219	73	0
10	222	74	0
10	225	75	0
10	228	76	0
10	231	77	0
10	234	78	0
10	237	79	0
10	240	80	0
10	243	81	0
10	246	82	0
10	249	83	0
10	252	84	0
10	255	85	0
10	258	86	0
10	261	87	0
10	264	88	0
10	267	89	0
10	270	90	0
10	273	91	0
10	276	92	0
10	279	93	0
10	282	94	0
10	285	95	0
10	288	96	0
10	291	97	0
10	294	98	0
10	297	99	0
10	300	100	0
10	303	101	0
10	306	102	0
10	309	103	0
10	312	104	0
10	315	105	0
10	318	106	0
10	321	107	0
10	324	108	0
10	327	109	0
10	330	110	0
10	333	111	0
10	336	112	0
10	339	113	0
10	342	114	0
10	345	115	0
10	348	116	0
10	351	117	0
10	354	118	0
10	357	119	0
10	360	120	0
10	363	121	0
10	367	122	0
10	370	123	0
10	373	124	0
10	376	125	0
10	379	126	0
10	382	127	0
10	385	128	0
10	388	129	0
10	391	130	0
10	394	131	0
10	397	132	0
10	400	133	0
10	403	134	0
10	406	135	0
10	409	136	0
10	412	137	0
10	415	138	0
10	418	139	0
10	421	140	0
10	424	141	0
10	427	142	0
10	430	143	0
10	433	144	0
10	436	145	0
10	439	146	0
10	442	147	0
10	445	148	0
10	448	149	0
10	451	150	0
10	454	151	0
10	457	152	0
10	460	153	0
10	463	154	0
10	466	155	0
10	469	156	0
10	472	157	0
10	475	158	0
10	478	159	0
10	481	160	0
10	484	161	0
10	487	162	0
10	490	163	0
10	493	164	0
10	496	165	0
10	499	166	0
10	502	167	0
10	505	168	0
10	508	169	0
10	511	170	0
10	514	171	0
10	517	172	0
10	520	173	0
10	523	174	0
10	526	175	0
10	529	176	0
10	532	177	0
10	535	178	0
10	538	179	0
10	541	180	0
10	544	181	0
10	547	182	0
10	550	183	0
10	553	184	0
10	556	185	0
10	559	186	0
10	562	187	0
10	565	188	0
10	568	189	0
10	571	190	0
10	574	191	0
10	577	192	0
10	580	193	0
10	583	194	0
10	586	195	0
10	589	196	0
10	592	197	0
10	595	198	0
10	598	199	0
10	601	200	0
10	604	201	0
10	791	202	0
10	978	203	0
10	1165	204	0
10	1352	205	0
10	1539	206	0
10	1726	207	0
10	1913	208	0
10	2101	209	0
10	2291	210	0
10	2485	211	0
10	2678	212	0
10	2872	213	0
10	3066	214	0
10	3264	215	0
10	3466	216	0
10	3667	217	0
10	3869	218	0
10	4071	219	0
10	4273	220	0
10	4475	221	0
10	4677	222	0
10	4880	223	0.46898014040374
10	5085	224	1.5031862596601
10	5287	225	1.9861850938153
10	5489	226	2.1577225177725
10	5691	227	2.1190648396176
10	5893	228	1.8691446388275
10	6095	229	1.4485738148686
10	6297	230	0.98568764219443
10	6499	231	0.60789060881981
10	6698	232	0.35737529438959
10	6898	233	0.21068643440172
10	7097	234	0.12973295768865
10	7297	235	0.08564111362063
10	7496	236	0.061139257551293
10	7695	237	0.046887475497188
10	7895	238	0.03804686422067
10	8093	239	0.032143938016285
10	8292	240	0.027908931605362
10	8487	241	0.024678293541918
10	8683	242	0.022094505268347
10	8879	243	0.019956419063053
10	9075	244	0.018144514823682
10	9271	245	0.01658324570284
10	9464	246	0.015221771049623
10	9658	247	0.014023865767751
10	9851	248	0.012962463370348
10	10044	249	0.012016580448668
10	10236	250	0.011169495589039
10	10429	251	0.01040761106489
10	10621	252	0.0097197016690735
10	10811	253	0.0090963937776412
10	11003	254	0.0085297885319893
10	11193	255	0.0080131799169632
10	11383	256	0.007540838267559
10	11570	257	0.0071078406846645
10	11757	258	0.042742647256702
10	11933	259	0.080966317833516
10	12109	260	0.039111738419621
10	12285	261	0.018762849035866
10	12464	262	0.0089708799030426
7	6	2	10.758436102701
7	9	3	11.742181602338
7	12	4	12.436251035435
7	15	5	12.900507964356
7	18	6	13.210963721972
7	21	7	13.424683428876
7	24	8	13.578121554021
7	27	9	13.693211266861
7	30	10	13.7830004214
7	33	11	13.855372822544
7	36	12	13.915240451881
7	39	13	13.965782789754
7	42	14	14.009142365964
7	45	15	14.04681967061
7	48	16	14.079902602452
7	51	17	14.109203856383
7	54	18	14.135346020598
7	57	19	14.15881615853
7	60	20	14.180002023495
7	63	21	14.199216850851
7	66	22	14.216716811339
7	69	23	14.232713600185
7	72	24	14.247383707789
7	75	25	14.260875366296
7	78	26	14.273313829046
7	81	27	14.284805427299
7	84	28	14.295440710642
7	87	29	14.305296885033
7	90	30	14.314439698398
7	93	31	14.322924877445
7	96	32	14.330799183857
7	99	33	14.338101128476
7	102	34	14.344861354278
7	105	35	14.351102668816
7	108	36	14.356839669201
7	111	37	14.362077850015
7	114	38	14.366812004228
7	117	39	14.371023597353
7	120	40	14.374676575046
7	123	41	14.377710676478
7	126	42	14.380030614342
7	129	43	14.380988921711
7	132	44	14.370968847362
7	135	45	14.349962499213
7	138	46	14.319723442622
7	141	47	14.27969089463
7	144	48	14.227546363235
7	147	49	14.159093764421
7	150	50	14.067528215717
7	153	51	13.941873558967
7	156	52	13.763974851388
7	159	53	13.50272080317
7	162	54	13.085920983592
7	165	55	12.206590273148
7	168	56	10.676088834685
7	171	57	8.3349401632409
7	174	58	5.3910433130375
7	177	59	2.6286201109524
7	180	60	0.87387498432727
7	183	61	0.15496576054482
7	186	62	0
7	189	63	0
7	192	64	0
7	195	65	0
7	198	66	0
7	201	67	0
7	204	68	0
7	207	69	0
7	210	70	0
7	213	71	0
7	216	72	0
7	219	73	0
7	222	74	0
7	225	75	0
7	228	76	0
7	231	77	0
7	234	78	0
7	237	79	0
7	240	80	0
7	243	81	0
7	246	82	0
7	249	83	0
7	252	84	0
7	255	85	0
7	258	86	0
7	261	87	0
7	264	88	0
7	267	89	0
7	270	90	0
7	273	91	0
7	276	92	0
7	279	93	0
7	282	94	0
7	285	95	0
7	288	96	0
7	291	97	0
7	294	98	0
7	297	99	0
7	300	100	0
7	303	101	0
7	306	102	0
7	309	103	0
7	312	104	0
7	315	105	0
7	318	106	0
7	321	107	0
7	324	108	0
7	327	109	0
7	330	110	0
7	333	111	0
7	336	112	0
7	339	113	0
7	342	114	0
7	345	115	0
7	348	116	0
7	351	117	0
7	354	118	0
7	357	119	0
7	360	120	0
7	363	121	0
7	367	122	0
7	370	123	0
7	373	124	0
7	376	125	0
7	379	126	0
7	382	127	0
7	385	128	0
7	388	129	0
7	391	130	0
7	394	131	0
7	397	132	0
7	400	133	0
7	403	134	0
7	406	135	0
7	409	136	0
7	412	137	0
7	415	138	0
7	418	139	0
7	421	140	0
7	424	141	0
7	427	142	0
7	430	143	0
7	433	144	0
7	436	145	0
7	439	146	0
7	442	147	0
7	445	148	0
7	448	149	0
7	451	150	0
7	454	151	0
7	457	152	0
7	460	153	0
7	463	154	0
7	466	155	0
7	469	156	0
7	472	157	0
7	475	158	0
7	478	159	0
7	481	160	0
7	484	161	0
7	487	162	0
7	490	163	0
7	493	164	0
7	496	165	0
7	499	166	0
7	502	167	0
7	505	168	0
7	508	169	0
7	511	170	0
7	514	171	0
7	517	172	0
7	520	173	0
7	523	174	0
7	526	175	0
7	529	176	0
7	532	177	0
7	535	178	0
7	538	179	0
7	541	180	0
7	544	181	0
7	547	182	0
7	550	183	0
7	553	184	0
7	556	185	0
7	559	186	0
7	562	187	0
7	565	188	0
7	568	189	0
7	571	190	0
7	574	191	0
7	577	192	0
7	580	193	0
7	583	194	0
7	586	195	0
7	589	196	0
7	592	197	0
7	595	198	0
7	598	199	0
7	601	200	0
7	604	201	0
7	791	202	0
7	978	203	0
7	1165	204	0
7	1352	205	0
7	1539	206	0
7	1726	207	0
7	1913	208	0
7	2101	209	0
7	2291	210	0
7	2485	211	0
7	2678	212	0
7	2872	213	0
7	3066	214	0
7	3264	215	0
7	3466	216	0
7	3667	217	0
7	3869	218	0
7	4071	219	0
7	4273	220	0
7	4475	221	0
7	4677	222	0
7	4880	223	0.46898014040374
7	5085	224	1.9721664000638
7	5287	225	3.9583514938791
7	5489	226	6.1160740116516
7	5691	227	8.2351388512692
7	5893	228	10.104283490097
7	6095	229	11.552857304965
7	6297	230	12.53854494716
7	6499	231	13.14643555598
7	6698	232	13.503810850369
7	6898	233	13.714497284771
7	7097	234	13.844230242459
7	7297	235	13.92987135608
7	7496	236	13.991010613631
7	7695	237	14.037898089129
7	7895	238	14.075944953349
7	8093	239	14.108088891366
7	8292	240	14.135997822971
7	8487	241	14.160676116513
7	8683	242	14.182770621781
7	8879	243	14.202727040844
7	9075	244	14.220871555668
7	9271	245	14.237454801371
7	9464	246	14.25267657242
7	9658	247	14.266700438188
7	9851	248	14.279662901558
7	10044	249	14.291679482007
7	10236	250	14.302848977596
7	10429	251	14.313256588661
7	10621	252	14.32297629033
7	10811	253	14.332072684108
7	11003	254	14.34060247264
7	11193	255	14.348615652557
7	11383	256	14.356156490824
7	11570	257	14.363264331509
7	11757	258	14.406006978766
7	11933	259	14.486973296599
7	12109	260	14.526085035019
7	12285	261	14.544847884055
7	12464	262	14.553818763958
3	3	1	26.6
3	6	2	26.6
3	9	3	26.6
3	12	4	26.6
3	15	5	26.6
3	18	6	26.6
3	21	7	26.6
3	24	8	26.6
3	27	9	26.6
3	30	10	26.6
3	33	11	26.6
3	36	12	26.6
3	39	13	26.6
3	42	14	26.6
3	45	15	26.6
3	48	16	26.6
3	51	17	26.6
3	54	18	26.6
3	57	19	26.6
3	60	20	26.6
3	63	21	26.6
3	66	22	26.6
3	69	23	26.6
3	72	24	26.6
3	75	25	26.6
3	78	26	26.6
3	81	27	26.6
3	84	28	26.6
3	87	29	26.6
3	90	30	26.6
3	93	31	26.6
3	96	32	26.6
3	99	33	26.6
3	102	34	26.6
3	105	35	26.6
3	108	36	26.6
3	111	37	26.6
3	114	38	26.6
3	117	39	26.6
3	120	40	26.6
3	123	41	26.6
3	126	42	26.6
3	129	43	26.6
3	132	44	26.6
3	135	45	26.6
3	138	46	26.6
3	141	47	26.6
3	144	48	26.6
3	147	49	26.6
3	150	50	26.6
3	153	51	26.6
3	156	52	26.6
3	159	53	26.6
3	162	54	26.6
3	165	55	26.6
3	168	56	26.6
3	171	57	26.6
3	174	58	26.6
3	177	59	26.6
3	180	60	26.6
3	183	61	26.6
3	186	62	26.6
3	189	63	26.6
3	192	64	26.6
3	195	65	26.6
3	198	66	26.6
3	201	67	26.6
3	204	68	26.6
3	207	69	26.6
3	210	70	26.6
3	213	71	26.6
3	216	72	26.6
3	219	73	26.6
3	222	74	26.6
3	225	75	26.6
3	228	76	26.6
3	231	77	26.6
3	234	78	26.6
3	237	79	26.6
3	240	80	26.6
3	243	81	26.6
3	246	82	26.6
3	249	83	26.6
3	252	84	26.6
3	255	85	26.6
3	258	86	26.6
3	261	87	26.6
3	264	88	26.6
3	267	89	26.6
3	270	90	26.6
3	273	91	26.6
3	276	92	26.6
3	279	93	26.6
3	282	94	26.6
3	285	95	26.6
3	288	96	26.6
3	291	97	26.6
3	294	98	26.6
3	297	99	26.6
3	300	100	26.6
3	303	101	26.6
3	306	102	26.6
3	309	103	26.6
3	312	104	26.6
3	315	105	26.6
3	318	106	26.6
3	321	107	26.6
3	324	108	26.6
3	327	109	26.6
3	330	110	26.6
3	333	111	26.6
3	336	112	26.6
3	339	113	26.6
3	342	114	26.6
3	345	115	26.6
3	348	116	26.6
3	351	117	26.6
3	354	118	26.6
3	357	119	26.6
3	360	120	26.6
3	363	121	26.6
3	367	122	26.6
3	370	123	26.6
3	373	124	26.6
3	376	125	26.6
3	379	126	26.6
3	382	127	26.6
3	385	128	26.6
3	388	129	26.6
3	391	130	26.6
3	394	131	26.6
3	397	132	26.6
3	400	133	26.6
3	403	134	26.6
3	406	135	26.6
3	409	136	26.6
3	412	137	26.6
3	415	138	26.6
3	418	139	26.6
3	421	140	26.6
3	424	141	26.6
3	427	142	26.6
3	430	143	26.6
3	433	144	26.6
3	436	145	26.6
3	439	146	26.6
3	442	147	26.6
3	445	148	26.6
3	448	149	26.6
3	451	150	26.6
3	454	151	26.6
3	457	152	26.6
3	460	153	26.6
3	463	154	26.6
3	466	155	26.6
3	469	156	26.6
3	472	157	26.6
3	475	158	26.6
3	478	159	26.6
3	481	160	26.6
3	484	161	26.6
3	487	162	26.6
3	490	163	26.6
3	493	164	26.6
3	496	165	26.6
3	499	166	26.6
3	502	167	26.6
3	505	168	26.6
3	508	169	26.6
3	511	170	26.6
3	514	171	26.6
3	517	172	26.6
3	520	173	26.6
3	523	174	26.6
3	526	175	26.6
3	529	176	26.6
3	532	177	26.6
3	535	178	26.6
3	538	179	26.6
3	541	180	26.6
3	544	181	26.6
3	547	182	26.6
3	550	183	26.6
3	553	184	26.6
3	556	185	26.6
3	559	186	26.6
3	562	187	26.6
3	565	188	26.6
3	568	189	26.6
3	571	190	26.6
3	574	191	26.6
3	577	192	26.6
3	580	193	26.6
3	583	194	26.6
3	586	195	26.6
3	589	196	26.6
3	592	197	26.6
3	595	198	26.6
3	598	199	26.6
3	601	200	26.6
3	604	201	26.6
3	791	202	26.6
3	978	203	26.6
3	1165	204	26.6
3	1352	205	26.6
3	1539	206	26.6
3	1726	207	26.6
3	1913	208	26.6
3	2101	209	26.6
3	2291	210	26.6
3	2485	211	26.6
3	2678	212	26.6
3	2872	213	26.6
3	3066	214	26.6
3	3264	215	26.6
3	3466	216	26.6
3	3667	217	26.6
3	3869	218	26.6
3	4071	219	26.6
3	4273	220	26.6
3	4475	221	26.6
3	4677	222	26.6
3	4880	223	26.6
3	5085	224	26.6
3	5287	225	26.6
3	5489	226	26.6
3	5691	227	26.6
3	5893	228	26.6
3	6095	229	26.6
3	6297	230	26.6
3	6499	231	26.6
3	6698	232	26.6
3	6898	233	26.6
3	7097	234	26.6
3	7297	235	26.6
3	7496	236	26.6
3	7695	237	26.6
3	7895	238	26.6
3	8093	239	26.6
3	8292	240	26.6
3	8487	241	26.6
3	8683	242	26.6
3	8879	243	26.6
3	9075	244	26.6
3	9271	245	26.6
3	9464	246	26.6
3	9658	247	26.6
3	9851	248	26.6
3	10044	249	26.6
3	10236	250	26.6
3	10429	251	26.6
3	10621	252	26.6
3	10811	253	26.6
3	11003	254	26.6
3	11193	255	26.6
3	11383	256	26.6
3	11570	257	26.6
3	11757	258	26.6
3	11933	259	26.6
3	12109	260	26.6
3	12285	261	26.6
3	12464	262	26.6
2	3	1	33.217495321479
2	6	2	33.217495321479
2	9	3	43.455043204122
2	12	4	54.77871734917
2	15	5	66.924860120344
2	18	6	79.632086317518
2	21	7	92.713332730246
2	24	8	106.04804907196
2	27	9	119.56102073542
2	30	10	133.20496658004
2	33	11	146.94926618545
2	36	12	160.7732722916
2	39	13	174.66245306581
2	42	14	188.60616072651
2	45	15	202.59631435582
2	48	16	216.6265981545
2	51	17	230.69195554858
2	54	18	244.7882577544
2	57	19	258.91207860118
2	60	20	273.06053635717
2	63	21	287.23117929529
2	66	22	301.42190076113
2	69	23	315.63087473975
2	72	24	329.85650604208
2	75	25	344.09739115465
2	78	26	358.35228701608
2	81	27	372.62008577917
2	84	28	386.89979414987
2	87	29	401.19051625805
2	90	30	415.49143926768
2	93	31	429.80182111102
2	96	32	444.12097985453
2	99	33	458.44828428796
2	102	34	472.78314537947
2	105	35	487.12500826308
2	108	36	501.4733444192
2	111	37	515.82764367019
2	114	38	530.18740552823
2	117	39	544.55212928232
2	120	40	558.92130195519
2	123	41	573.29438282984
2	126	42	587.67078251118
2	129	43	602.04983320549
2	132	44	616.43067749809
2	135	45	630.80721788682
2	138	46	645.16742425965
2	141	47	659.50151175287
2	144	48	673.80009520634
2	147	49	688.05224702799
2	150	50	702.24372248294
2	153	51	716.35473482103
2	156	52	730.35657345144
2	159	53	744.20593802448
2	162	54	757.83489368295
2	165	55	771.12958900885
2	168	56	783.77956401699
2	171	57	795.20493636845
2	174	58	804.65499234761
2	177	59	811.39810009806
2	180	60	815.21195057795
2	183	61	816.77786109182
2	186	62	817.18907828515
2	189	63	817.20124261303
2	192	64	817.20124261303
2	195	65	817.20124261303
2	198	66	817.20124261303
2	201	67	817.20124261303
2	204	68	817.20124261303
2	207	69	817.20124261303
2	210	70	817.20124261303
2	213	71	817.20124261303
2	216	72	817.20124261303
2	219	73	817.20124261303
2	222	74	817.20124261303
2	225	75	817.20124261303
2	228	76	817.20124261303
2	231	77	817.20124261303
2	234	78	817.20124261303
2	237	79	817.20124261303
2	240	80	817.20124261303
2	243	81	817.20124261303
2	246	82	817.20124261303
2	249	83	817.20124261303
2	252	84	817.20124261303
2	255	85	817.20124261303
2	258	86	817.20124261303
2	261	87	817.20124261303
2	264	88	817.20124261303
2	267	89	817.20124261303
2	270	90	817.20124261303
2	273	91	817.20124261303
2	276	92	817.20124261303
2	279	93	817.20124261303
2	282	94	817.20124261303
2	285	95	817.20124261303
2	288	96	817.20124261303
2	291	97	817.20124261303
2	294	98	817.20124261303
2	297	99	817.20124261303
2	300	100	817.20124261303
2	303	101	817.20124261303
2	306	102	817.20124261303
2	309	103	817.20124261303
2	312	104	817.20124261303
2	315	105	817.20124261303
2	318	106	817.20124261303
2	321	107	817.20124261303
2	324	108	817.20124261303
2	327	109	817.20124261303
2	330	110	817.20124261303
2	333	111	817.20124261303
2	336	112	817.20124261303
2	339	113	817.20124261303
2	342	114	817.20124261303
2	345	115	817.20124261303
2	348	116	817.20124261303
2	351	117	817.20124261303
2	354	118	817.20124261303
2	357	119	817.20124261303
2	360	120	817.20124261303
2	363	121	817.20124261303
2	367	122	817.20124261303
2	370	123	817.20124261303
2	373	124	817.20124261303
2	376	125	817.20124261303
2	379	126	817.20124261303
2	382	127	817.20124261303
2	385	128	817.20124261303
2	388	129	817.20124261303
2	391	130	817.20124261303
2	394	131	817.20124261303
2	397	132	817.20124261303
2	400	133	817.20124261303
2	403	134	817.20124261303
2	406	135	817.20124261303
2	409	136	817.20124261303
2	412	137	817.20124261303
2	415	138	817.20124261303
2	418	139	817.20124261303
2	421	140	817.20124261303
2	424	141	817.20124261303
2	427	142	817.20124261303
2	430	143	817.20124261303
2	433	144	817.20124261303
2	436	145	817.20124261303
2	439	146	817.20124261303
2	442	147	817.20124261303
2	445	148	817.20124261303
2	448	149	817.20124261303
2	451	150	817.20124261303
2	454	151	817.20124261303
2	457	152	817.20124261303
2	460	153	817.20124261303
2	463	154	817.20124261303
2	466	155	817.20124261303
2	469	156	817.20124261303
2	472	157	817.20124261303
2	475	158	817.20124261303
2	478	159	817.20124261303
2	481	160	817.20124261303
2	484	161	817.20124261303
2	487	162	817.20124261303
2	490	163	817.20124261303
2	493	164	817.20124261303
2	496	165	817.20124261303
2	499	166	817.20124261303
2	502	167	817.20124261303
2	505	168	817.20124261303
2	508	169	817.20124261303
2	511	170	817.20124261303
2	514	171	817.20124261303
2	517	172	817.20124261303
2	520	173	817.20124261303
2	523	174	817.20124261303
2	526	175	817.20124261303
2	529	176	817.20124261303
2	532	177	817.20124261303
2	535	178	817.20124261303
2	538	179	817.20124261303
2	541	180	817.20124261303
2	544	181	817.20124261303
2	547	182	817.20124261303
2	550	183	817.20124261303
2	553	184	817.20124261303
2	556	185	817.20124261303
2	559	186	817.20124261303
2	562	187	817.20124261303
2	565	188	817.20124261303
2	568	189	817.20124261303
2	571	190	817.20124261303
2	574	191	817.20124261303
2	577	192	817.20124261303
2	580	193	817.20124261303
2	583	194	817.20124261303
2	586	195	817.20124261303
2	589	196	817.20124261303
2	592	197	817.20124261303
2	595	198	817.20124261303
2	598	199	817.20124261303
2	601	200	817.20124261303
2	604	201	817.20124261303
2	791	202	817.20124261303
2	978	203	817.20124261303
2	1165	204	817.20124261303
2	1352	205	817.20124261303
2	1539	206	817.20124261303
2	1726	207	817.20124261303
2	1913	208	817.20124261303
2	2101	209	817.20124261303
2	2291	210	817.20124261303
2	2485	211	817.20124261303
2	2678	212	817.20124261303
2	2872	213	817.20124261303
2	3066	214	817.20124261303
2	3264	215	817.20124261303
2	3466	216	817.20124261303
2	3667	217	817.20124261303
2	3869	218	817.20124261303
2	4071	219	817.20124261303
2	4273	220	817.20124261303
2	4475	221	817.20124261303
2	4677	222	817.20124261303
2	4880	223	817.20124261303
2	5085	224	817.3591861665
2	5287	225	818.59514909422
2	5489	226	821.6358124865
2	5691	227	826.6756573182
2	5893	228	833.96905719892
2	6095	229	843.26125951119
2	6297	230	854.20105132857
2	6499	231	866.33208573636
2	6698	232	879.2308479542
2	6898	233	892.58963300587
2	7097	234	906.21817724319
2	7297	235	920.00884568888
2	7496	236	933.90281936558
2	7695	237	947.86781720461
2	7895	238	961.88551797936
2	8093	239	975.94492420093
2	8292	240	990.03895314813
2	8487	241	1004.1626928156
2	8683	242	1018.3124996326
2	8879	243	1032.4855202357
2	9075	244	1046.6794284291
2	9271	245	1060.8922731816
2	9464	246	1075.1223854488
2	9658	247	1089.3683173319
2	9851	248	1103.6287998704
2	10044	249	1117.9027121829
2	10236	250	1132.189057937
2	10429	251	1146.4869468255
2	10621	252	1160.7955796387
2	10811	253	1175.1142360212
2	11003	254	1189.4422643023
2	11193	255	1203.7790729591
2	11383	256	1218.1241233947
2	11570	257	1232.4769237845
2	11757	258	1246.8370238026
2	11933	259	1261.21139631
2	12109	260	1275.6667209231
2	12285	261	1290.1775472507
2	12464	262	1304.715082039
16	12	4	5.2612278497811
16	15	5	6.4702669343854
16	18	6	6.666439762757
16	21	7	5.7717954797671
16	24	8	4.4456600585291
16	27	9	3.3639930877154
16	30	10	2.7064492181305
16	33	11	2.3636468068194
16	36	12	2.1980733008839
16	39	13	2.120972648377
16	42	14	2.0856900339863
16	45	15	2.0696819039355
16	48	16	2.0624483953973
16	51	17	2.0591789640851
16	54	18	2.0576868616342
16	57	19	2.0569828254678
16	60	20	2.0566216259116
16	63	21	2.0564046071768
16	66	22	2.05624460342
16	69	23	2.0561046352206
16	72	24	2.0559700967554
16	75	25	2.0558361500003
16	78	26	2.0557020297263
16	81	27	2.0555684911962
16	84	28	2.0554366862521
16	87	29	2.0553076861481
16	90	30	2.0551822937512
16	93	31	2.0550609810851
16	96	32	2.0549438763688
16	99	33	2.0548307647516
16	102	34	2.054721084736
16	105	35	2.0546139094965
16	108	36	2.0545079040507
16	111	37	2.0544012475069
16	114	38	2.0542915046064
16	117	39	2.0541754213506
16	120	40	2.0540486027474
16	123	41	2.0539050006136
16	126	42	2.0537360837357
16	129	43	2.0535256564643
16	132	44	2.0524746417613
16	135	45	2.0498836668727
16	138	46	2.0467244559454
16	141	47	2.0432016713932
16	144	48	2.0390864823943
16	147	49	2.0339343427175
16	150	50	2.0270697468958
16	153	51	2.017418840706
16	156	52	2.0009098738392
16	159	53	1.9064837730462
16	162	54	1.7892762558986
16	165	55	1.6623866319189
16	168	56	1.4947079619681
16	171	57	1.2481643336367
16	174	58	0.973
16	177	59	0.973
16	180	60	0.973
16	183	61	0.973
16	186	62	0.973
16	189	63	0.973
16	192	64	0.973
16	195	65	0.973
16	198	66	0.973
16	201	67	0.973
16	204	68	0.973
16	207	69	0.973
16	210	70	0.973
16	213	71	0.973
16	216	72	0.973
16	219	73	0.973
16	222	74	0.973
16	225	75	0.973
16	228	76	0.973
16	231	77	0.973
16	234	78	0.973
16	237	79	0.973
16	240	80	0.973
16	243	81	0.973
16	246	82	0.973
16	249	83	0.973
16	252	84	0.973
16	255	85	0.973
16	258	86	0.973
16	261	87	0.973
16	264	88	0.973
16	267	89	0.973
16	270	90	0.973
16	273	91	0.973
16	276	92	0.973
16	279	93	0.973
16	282	94	0.973
16	285	95	0.973
16	288	96	0.973
16	291	97	0.973
16	294	98	0.973
16	297	99	0.973
16	300	100	0.973
16	303	101	0.973
16	306	102	0.973
16	309	103	0.973
16	312	104	0.973
16	315	105	0.973
16	318	106	0.973
16	321	107	0.973
16	324	108	0.973
16	327	109	0.973
16	330	110	0.973
16	333	111	0.973
16	336	112	0.973
16	339	113	0.973
16	342	114	0.973
16	345	115	0.973
16	348	116	0.973
16	351	117	0.973
16	354	118	0.973
16	357	119	0.973
16	360	120	0.973
16	363	121	0.973
16	367	122	0.973
16	370	123	0.973
16	373	124	0.973
16	376	125	0.973
16	379	126	0.973
16	382	127	0.973
16	385	128	0.973
16	388	129	0.973
16	391	130	0.973
16	394	131	0.973
16	397	132	0.973
16	400	133	0.973
16	403	134	0.973
16	406	135	0.973
16	409	136	0.973
16	412	137	0.973
16	415	138	0.973
16	418	139	0.973
16	421	140	0.973
16	424	141	0.973
16	427	142	0.973
16	430	143	0.973
16	433	144	0.973
16	436	145	0.973
16	439	146	0.973
16	442	147	0.973
16	445	148	0.973
16	448	149	0.973
16	451	150	0.973
16	454	151	0.973
16	457	152	0.973
16	460	153	0.973
16	463	154	0.973
16	466	155	0.973
16	469	156	0.973
16	472	157	0.973
16	475	158	0.973
16	478	159	0.973
16	481	160	0.973
16	484	161	0.973
16	487	162	0.973
16	490	163	0.973
16	493	164	0.973
16	496	165	0.973
16	499	166	0.973
16	502	167	0.973
16	505	168	0.973
16	508	169	0.973
16	511	170	0.973
16	514	171	0.973
16	517	172	0.973
16	520	173	0.973
16	523	174	0.973
16	526	175	0.973
16	529	176	0.973
16	532	177	0.973
16	535	178	0.973
16	538	179	0.973
16	541	180	0.973
16	544	181	0.973
16	547	182	0.973
16	550	183	0.973
16	553	184	0.973
16	556	185	0.973
16	559	186	0.973
16	562	187	0.973
16	565	188	0.973
16	568	189	0.973
16	571	190	0.973
16	574	191	0.973
16	577	192	0.973
16	580	193	0.973
16	583	194	0.973
16	586	195	0.973
16	589	196	0.973
16	592	197	0.973
16	595	198	0.973
16	598	199	0.973
16	601	200	0.973
16	604	201	0.973
16	791	202	0.973
16	978	203	0.973
16	1165	204	0.973
16	1352	205	0.973
16	1539	206	0.973
16	1726	207	0.973
16	1913	208	0.973
16	2101	209	0.973
16	2291	210	0.973
16	2485	211	0.973
16	2678	212	0.973
16	2872	213	0.973
16	3066	214	0.973
16	3264	215	0.973
16	3466	216	0.973
16	3667	217	0.973
16	3869	218	0.973
16	4071	219	0.973
16	4273	220	0.973
16	4475	221	0.973
16	4677	222	0.973
16	4880	223	1.1122490584376
16	5085	224	1.2028698787582
16	5287	225	1.6768626810014
16	5489	226	2.5841878474274
16	5691	227	3.7184650888057
16	5893	228	4.7895334725396
16	6095	229	5.427190667402
16	6297	230	5.3580027358845
16	6499	231	4.6949454764927
16	6698	232	3.8577756852005
16	6898	233	3.1751978943559
16	7097	234	2.7289910426907
16	7297	235	2.4677469864883
16	7496	236	2.321051702394
16	7695	237	2.2383881510256
16	7895	238	2.190113748567
16	8093	239	2.1602361603712
16	8292	240	2.1404131550603
16	8487	241	2.1263208395214
16	8683	242	2.115690179289
16	8879	243	2.1072960696998
16	9075	244	2.1004476223511
16	9271	245	2.0947326789267
16	9464	246	2.0898891887693
16	9658	247	2.0857395727433
16	9851	248	2.0821564444277
16	10044	249	2.0790440949333
16	10236	250	2.0763280400737
16	10429	251	2.0739487989927
16	10621	252	2.0718579734448
16	10811	253	2.0700156348444
16	11003	254	2.0683884939277
16	11193	255	2.0669485648564
16	11383	256	2.0656721584051
16	11570	257	2.0645391044839
16	11757	258	2.0646908609508
16	11933	259	2.0806551925401
16	12109	260	2.0842837400191
16	12285	261	2.0801624149596
16	12464	262	2.0752612598826
16	12642	263	2.5755605578921
16	12808	264	2.5550759411308
16	12898	265	2.3053268870163
15	12	4	2.5201084367818
15	15	5	2.3449379859868
15	18	6	1.9364721423167
15	21	7	1.3647992658669
15	24	8	0.82168042900117
15	27	9	0.44119858005664
15	30	10	0.22394471962293
15	33	11	0.11360716450327
15	36	12	0.060758811010324
15	39	13	0.036051279758331
15	42	14	0.024528853192573
15	45	15	0.019062166558502
15	48	16	0.016352386731283
15	51	17	0.014893495993039
15	54	18	0.014002357871643
15	57	19	0.013370328273382
15	60	20	0.012858551386307
15	63	21	0.012404986230477
15	66	22	0.011982258402023
15	69	23	0.011578563292272
15	72	24	0.01118901743334
15	75	25	0.01081174750886
15	78	26	0.01044612929322
15	81	27	0.010092002604001
15	84	28	0.0097493288486046
15	87	29	0.0094180482944033
15	90	30	0.0090980262307703
15	93	31	0.0087890373069168
15	96	32	0.0084907647226782
15	99	33	0.0082028033872934
15	102	34	0.0079246616983077
15	105	35	0.0076557588659387
15	108	36	0.007395415319138
15	111	37	0.0071428333085031
15	114	38	0.0068970634682834
15	117	39	0.0066569505136815
15	120	40	0.0064210466304573
15	123	41	0.0061874727970679
15	126	42	0.0059536928625779
15	129	43	0.005715039611788
15	132	44	0.005241256797559
15	135	45	0.0043379718059029
15	138	46	0.0032982651896738
15	141	47	0.0021850561846275
15	144	48	0.00093435894353178
15	147	49	-0.0005782057507524
15	150	50	-0.0025402430701096
15	153	51	-0.0052495246948432
15	156	52	-0.0098627254002235
15	159	53	-0.036919829987353
15	162	54	-0.070095522613817
15	165	55	-0.10572908549045
15	168	56	-0.15344505953532
15	171	57	-0.22569261737943
15	174	58	-0.41757494477592
15	177	59	-0.98210252575358
15	180	60	-1.81866155553
15	183	61	-2.7217457717473
15	186	62	-3.1108720496672
15	189	63	-2.4678653181535
15	192	64	-1.3326975923734
15	195	65	-0.50998932517479
15	198	66	0
15	201	67	0
15	204	68	0
15	207	69	0
15	210	70	0
15	213	71	0
15	216	72	0
15	219	73	0
15	222	74	0
15	225	75	0
15	228	76	0
15	231	77	0
15	234	78	0
15	237	79	0
15	240	80	0
15	243	81	0
15	246	82	0
15	249	83	0
15	252	84	0
15	255	85	0
15	258	86	0
15	261	87	0
15	264	88	0
15	267	89	0
15	270	90	0
15	273	91	0
15	276	92	0
15	279	93	0
15	282	94	0
15	285	95	0
15	288	96	0
15	291	97	0
15	294	98	0
15	297	99	0
15	300	100	0
15	303	101	0
15	306	102	0
15	309	103	0
15	312	104	0
15	315	105	0
15	318	106	0
15	321	107	0
15	324	108	0
15	327	109	0
15	330	110	0
15	333	111	0
15	336	112	0
15	339	113	0
15	342	114	0
15	345	115	0
15	348	116	0
15	351	117	0
15	354	118	0
15	357	119	0
15	360	120	0
15	363	121	0
15	367	122	0
15	370	123	0
15	373	124	0
15	376	125	0
15	379	126	0
15	382	127	0
15	385	128	0
15	388	129	0
15	391	130	0
15	394	131	0
15	397	132	0
15	400	133	0
15	403	134	0
15	406	135	0
15	409	136	0
15	412	137	0
15	415	138	0
15	418	139	0
15	421	140	0
15	424	141	0
15	427	142	0
15	430	143	0
15	433	144	0
15	436	145	0
15	439	146	0
15	442	147	0
15	445	148	0
15	448	149	0
15	451	150	0
15	454	151	0
15	457	152	0
15	460	153	0
15	463	154	0
15	466	155	0
15	469	156	0
15	472	157	0
15	475	158	0
15	478	159	0
15	481	160	0
15	484	161	0
15	487	162	0
15	490	163	0
15	493	164	0
15	496	165	0
15	499	166	0
15	502	167	0
15	505	168	0
15	508	169	0
15	511	170	0
15	514	171	0
15	517	172	0
15	520	173	0
15	523	174	0
15	526	175	0
15	529	176	0
15	532	177	0
15	535	178	0
15	538	179	0
15	541	180	0
15	544	181	0
15	547	182	0
15	550	183	0
15	553	184	0
15	556	185	0
15	559	186	0
15	562	187	0
15	565	188	0
15	568	189	0
15	571	190	0
15	574	191	0
15	577	192	0
15	580	193	0
15	583	194	0
15	586	195	0
15	589	196	0
15	592	197	0
15	595	198	0
15	598	199	0
15	601	200	0
15	604	201	0
15	791	202	0
15	978	203	0
15	1165	204	0
15	1352	205	0
15	1539	206	0
15	1726	207	0
15	1913	208	0
15	2101	209	0
15	2291	210	0
15	2485	211	0
15	2678	212	0
15	2872	213	0
15	3066	214	0
15	3264	215	0
15	3466	216	0
15	3667	217	0
15	3869	218	0
15	4071	219	0
15	4273	220	0
15	4475	221	0
15	4677	222	0
15	4880	223	0.039016884184096
15	5085	224	0.50633371051669
15	5287	225	1.1699603684468
15	5489	226	1.6261688273058
15	5691	227	1.8673494019462
15	5893	228	1.9215685931116
15	6095	229	1.7798556146745
15	6297	230	1.4585795435149
15	6499	231	1.052272713709
15	6698	232	0.68542186985204
15	6898	233	0.42354979080468
15	7097	234	0.26225028650373
15	7297	235	0.17005542246987
15	7496	236	0.11840577210578
15	7695	237	0.08887416088897
15	7895	238	0.071116526447865
15	8093	239	0.059669926267127
15	8292	240	0.051712373287337
15	8487	241	0.04578422950542
15	8683	242	0.041116017705237
15	8879	243	0.037287613217625
15	9075	244	0.034057900540319
15	9271	245	0.03127975504272
15	9464	246	0.028857260221015
15	9658	247	0.026723799544424
15	9851	248	0.024830525431053
15	10044	249	0.023140053783436
15	10236	250	0.021622845168299
15	10429	251	0.020255009023645
15	10621	252	0.019016891807592
15	10811	253	0.017892118200457
15	11003	254	0.016866908505264
15	11193	255	0.015929573833533
15	11383	256	0.015070131655325
15	11570	257	0.014280006448603
15	11757	258	0.013889602334926
15	11933	259	0.018115335444184
15	12109	260	0.018614040117248
15	12285	261	0.016845571265035
15	12464	262	0.014908390711678
15	12642	263	0.15796731844966
15	12808	264	0.14592844007677
15	12898	265	0.070313865047339
12	9	3	3.7767953846346
12	12	4	6.2969038214164
12	15	5	8.6418418074032
12	18	6	10.57831394972
12	21	7	11.943113215587
12	24	8	12.764793644588
12	27	9	13.205992224645
12	30	10	13.429936944267
12	33	11	13.543544108771
12	36	12	13.604302919781
12	39	13	13.640354199539
12	42	14	13.664883052732
12	45	15	13.68394521929
12	48	16	13.700297606022
12	51	17	13.715191102015
12	54	18	13.729193459886
12	57	19	13.74256378816
12	60	20	13.755422339546
12	63	21	13.767827325777
12	66	22	13.779809584179
12	69	23	13.791388147471
12	72	24	13.802577164904
12	75	25	13.813388912413
12	78	26	13.823835041706
12	81	27	13.83392704431
12	84	28	13.843676373159
12	87	29	13.853094421453
12	90	30	13.862192447684
12	93	31	13.870981484991
12	96	32	13.879472249714
12	99	33	13.887675053101
12	102	34	13.895599714799
12	105	35	13.903255473665
12	108	36	13.910650888984
12	111	37	13.917793722293
12	114	38	13.924690785761
12	117	39	13.931347736275
12	120	40	13.937768782905
12	123	41	13.943956255702
12	126	42	13.949909948565
12	129	43	13.955624988177
12	132	44	13.960866244974
12	135	45	13.96520421678
12	138	46	13.96850248197
12	141	47	13.970687538154
12	144	48	13.971621897098
12	147	49	13.971043691347
12	150	50	13.968503448277
12	153	51	13.963253923582
12	156	52	13.953391198182
12	159	53	13.916471368195
12	162	54	13.846375845581
12	165	55	13.74064676009
12	168	56	13.587201700555
12	171	57	13.361509083176
12	174	58	12.9439341384
12	177	59	11.961831612646
12	180	60	10.143170057116
12	183	61	7.4214242853689
12	186	62	4.3105522357017
12	189	63	1.8426869175482
12	192	64	0.50998932517479
12	195	65	0
12	198	66	0
12	201	67	0
12	204	68	0
12	207	69	0
12	210	70	0
12	213	71	0
12	216	72	0
12	219	73	0
12	222	74	0
12	225	75	0
12	228	76	0
12	231	77	0
12	234	78	0
12	237	79	0
12	240	80	0
12	243	81	0
12	246	82	0
12	249	83	0
12	252	84	0
12	255	85	0
12	258	86	0
12	261	87	0
12	264	88	0
12	267	89	0
12	270	90	0
12	273	91	0
12	276	92	0
12	279	93	0
12	282	94	0
12	285	95	0
12	288	96	0
12	291	97	0
12	294	98	0
12	297	99	0
12	300	100	0
12	303	101	0
12	306	102	0
12	309	103	0
12	312	104	0
12	315	105	0
12	318	106	0
12	321	107	0
12	324	108	0
12	327	109	0
12	330	110	0
12	333	111	0
12	336	112	0
12	339	113	0
12	342	114	0
12	345	115	0
12	348	116	0
12	351	117	0
12	354	118	0
12	357	119	0
12	360	120	0
12	363	121	0
12	367	122	0
12	370	123	0
12	373	124	0
12	376	125	0
12	379	126	0
12	382	127	0
12	385	128	0
12	388	129	0
12	391	130	0
12	394	131	0
12	397	132	0
12	400	133	0
12	403	134	0
12	406	135	0
12	409	136	0
12	412	137	0
12	415	138	0
12	418	139	0
12	421	140	0
12	424	141	0
12	427	142	0
12	430	143	0
12	433	144	0
12	436	145	0
12	439	146	0
12	442	147	0
12	445	148	0
12	448	149	0
12	451	150	0
12	454	151	0
12	457	152	0
12	460	153	0
12	463	154	0
12	466	155	0
12	469	156	0
12	472	157	0
12	475	158	0
12	478	159	0
12	481	160	0
12	484	161	0
12	487	162	0
12	490	163	0
12	493	164	0
12	496	165	0
12	499	166	0
12	502	167	0
12	505	168	0
12	508	169	0
12	511	170	0
12	514	171	0
12	517	172	0
12	520	173	0
12	523	174	0
12	526	175	0
12	529	176	0
12	532	177	0
12	535	178	0
12	538	179	0
12	541	180	0
12	544	181	0
12	547	182	0
12	550	183	0
12	553	184	0
12	556	185	0
12	559	186	0
12	562	187	0
12	565	188	0
12	568	189	0
12	571	190	0
12	574	191	0
12	577	192	0
12	580	193	0
12	583	194	0
12	586	195	0
12	589	196	0
12	592	197	0
12	595	198	0
12	598	199	0
12	601	200	0
12	604	201	0
12	791	202	0
12	978	203	0
12	1165	204	0
12	1352	205	0
12	1539	206	0
12	1726	207	0
12	1913	208	0
12	2101	209	0
12	2291	210	0
12	2485	211	0
12	2678	212	0
12	2872	213	0
12	3066	214	0
12	3264	215	0
12	3466	216	0
12	3667	217	0
12	3869	218	0
12	4071	219	0
12	4273	220	0
12	4475	221	0
12	4677	222	0
12	4880	223	0.039016884184096
12	5085	224	0.54535059470078
12	5287	225	1.7153109631475
12	5489	226	3.3414797904534
12	5691	227	5.2088291923996
12	5893	228	7.1303977855112
12	6095	229	8.9102534001857
12	6297	230	10.368832943701
12	6499	231	11.42110565741
12	6698	232	12.106527527262
12	6898	233	12.530077318066
12	7097	234	12.79232760457
12	7297	235	12.96238302704
12	7496	236	13.080788799146
12	7695	237	13.169662960035
12	7895	238	13.240779486483
12	8093	239	13.30044941275
12	8292	240	13.352161786037
12	8487	241	13.397946015542
12	8683	242	13.439062033248
12	8879	243	13.476349646465
12	9075	244	13.510407547006
12	9271	245	13.541687302048
12	9464	246	13.570544562269
12	9658	247	13.597268361814
12	9851	248	13.622098887245
12	10044	249	13.645238941028
12	10236	250	13.666861786197
12	10429	251	13.68711679522
12	10621	252	13.706133687028
12	10811	253	13.724025805228
12	11003	254	13.740892713733
12	11193	255	13.756822287567
12	11383	256	13.771892419222
12	11570	257	13.786172425671
12	11757	258	13.800062028006
12	11933	259	13.81817736345
12	12109	260	13.836791403567
12	12285	261	13.853636974832
12	12464	262	13.868545365544
12	12642	263	14.026512683994
12	12808	264	14.17244112407
12	12898	265	14.242754989118
5	6	2	26.6
5	9	3	26.6
5	12	4	26.6
5	15	5	26.6
5	18	6	26.6
5	21	7	26.6
5	24	8	26.6
5	27	9	26.6
5	30	10	26.6
5	33	11	26.6
5	36	12	26.6
5	39	13	26.6
5	42	14	26.6
5	45	15	26.6
5	48	16	26.6
5	51	17	26.6
5	54	18	26.6
5	57	19	26.6
5	60	20	26.6
5	63	21	26.6
5	66	22	26.6
5	69	23	26.6
5	72	24	26.6
5	75	25	26.6
5	78	26	26.6
5	81	27	26.6
5	84	28	26.6
5	87	29	26.6
5	90	30	26.6
5	93	31	26.6
5	96	32	26.6
5	99	33	26.6
5	102	34	26.6
5	105	35	26.6
5	108	36	26.6
5	111	37	26.6
5	114	38	26.6
5	117	39	26.6
5	120	40	26.6
5	123	41	26.6
5	126	42	26.6
5	129	43	26.6
5	132	44	26.6
5	135	45	26.6
5	138	46	26.6
5	141	47	26.6
5	144	48	26.6
5	147	49	26.6
5	150	50	26.6
5	153	51	26.6
5	156	52	26.6
5	159	53	26.6
5	162	54	26.6
5	165	55	26.6
5	168	56	26.6
5	171	57	26.6
5	174	58	26.6
5	177	59	26.6
5	180	60	26.6
5	183	61	26.6
5	186	62	26.6
5	189	63	26.6
5	192	64	26.6
5	195	65	26.6
5	198	66	26.6
5	201	67	26.6
5	204	68	26.6
5	207	69	26.6
5	210	70	26.6
5	213	71	26.6
5	216	72	26.6
5	219	73	26.6
5	222	74	26.6
5	225	75	26.6
5	228	76	26.6
5	231	77	26.6
5	234	78	26.6
5	237	79	26.6
5	240	80	26.6
5	243	81	26.6
5	246	82	26.6
5	249	83	26.6
5	252	84	26.6
5	255	85	26.6
5	258	86	26.6
5	261	87	26.6
5	264	88	26.6
5	267	89	26.6
5	270	90	26.6
5	273	91	26.6
5	276	92	26.6
5	279	93	26.6
5	282	94	26.6
5	285	95	26.6
5	288	96	26.6
5	291	97	26.6
5	294	98	26.6
5	297	99	26.6
5	300	100	26.6
5	303	101	26.6
5	306	102	26.6
5	309	103	26.6
5	312	104	26.6
5	315	105	26.6
5	318	106	26.6
5	321	107	26.6
5	324	108	26.6
5	327	109	26.6
5	330	110	26.6
5	333	111	26.6
5	336	112	26.6
5	339	113	26.6
5	342	114	26.6
5	345	115	26.6
5	348	116	26.6
5	351	117	26.6
5	354	118	26.6
5	357	119	26.6
5	360	120	26.6
5	363	121	26.6
5	367	122	26.6
5	370	123	26.6
5	373	124	26.6
5	376	125	26.6
5	379	126	26.6
5	382	127	26.6
5	385	128	26.6
5	388	129	26.6
5	391	130	26.6
5	394	131	26.6
5	397	132	26.6
5	400	133	26.6
5	403	134	26.6
5	406	135	26.6
5	409	136	26.6
5	412	137	26.6
5	415	138	26.6
5	418	139	26.6
5	421	140	26.6
5	424	141	26.6
5	427	142	26.6
5	430	143	26.6
5	433	144	26.6
5	436	145	26.6
5	439	146	26.6
5	442	147	26.6
5	445	148	26.6
5	448	149	26.6
5	451	150	26.6
5	454	151	26.6
5	457	152	26.6
5	460	153	26.6
5	463	154	26.6
5	466	155	26.6
5	469	156	26.6
5	472	157	26.6
5	475	158	26.6
5	478	159	26.6
5	481	160	26.6
5	484	161	26.6
5	487	162	26.6
5	490	163	26.6
5	493	164	26.6
5	496	165	26.6
5	499	166	26.6
5	502	167	26.6
5	505	168	26.6
5	508	169	26.6
5	511	170	26.6
5	514	171	26.6
5	517	172	26.6
5	520	173	26.6
5	523	174	26.6
5	526	175	26.6
5	529	176	26.6
5	532	177	26.6
5	535	178	26.6
5	538	179	26.6
5	541	180	26.6
5	544	181	26.6
5	547	182	26.6
5	550	183	26.6
5	553	184	26.6
5	556	185	26.6
5	559	186	26.6
5	562	187	26.6
5	565	188	26.6
5	568	189	26.6
5	571	190	26.6
5	574	191	26.6
5	577	192	26.6
5	580	193	26.6
5	583	194	26.6
5	586	195	26.6
5	589	196	26.6
5	592	197	26.6
5	595	198	26.6
5	598	199	26.6
5	601	200	26.6
5	604	201	26.6
5	791	202	26.6
5	978	203	26.6
5	1165	204	26.6
5	1352	205	26.6
5	1539	206	26.6
5	1726	207	26.6
5	1913	208	26.6
5	2101	209	26.6
5	2291	210	26.6
5	2485	211	26.6
5	2678	212	26.6
5	2872	213	26.6
5	3066	214	26.6
5	3264	215	26.6
5	3466	216	26.6
5	3667	217	26.6
5	3869	218	26.6
5	4071	219	26.6
5	4273	220	26.6
5	4475	221	26.6
5	4677	222	26.6
5	4880	223	26.6
5	5085	224	26.6
5	5287	225	26.6
5	5489	226	26.6
5	5691	227	26.6
5	5893	228	26.6
5	6095	229	26.6
5	6297	230	26.6
5	6499	231	26.6
5	6698	232	26.6
5	6898	233	26.6
5	7097	234	26.6
5	7297	235	26.6
5	7496	236	26.6
5	7695	237	26.6
5	7895	238	26.6
5	8093	239	26.6
5	8292	240	26.6
5	8487	241	26.6
5	8683	242	26.6
5	8879	243	26.6
5	9075	244	26.6
5	9271	245	26.6
5	9464	246	26.6
5	9658	247	26.6
5	9851	248	26.6
5	10044	249	26.6
5	10236	250	26.6
5	10429	251	26.6
5	10621	252	26.6
5	10811	253	26.6
5	11003	254	26.6
5	11193	255	26.6
5	11383	256	26.6
5	11570	257	26.6
5	11757	258	26.6
5	11933	259	26.6
5	12109	260	26.6
5	12285	261	26.6
5	12464	262	26.6
5	12642	263	26.6
5	12808	264	26.6
5	12898	265	26.6
4	6	2	29.833464876176
4	9	3	29.833464876176
4	12	4	32.477058589864
4	15	5	37.645032546013
4	18	6	45.255584952088
4	21	7	55.00529510194
4	24	8	66.38331125852
4	27	9	78.817335814655
4	30	10	91.848724026323
4	33	11	105.19049895102
4	36	12	118.68906321856
4	39	13	132.26891279207
4	42	14	145.8943877354
4	45	15	159.54886339883
4	48	16	173.22453576846
4	51	17	186.91763214852
4	54	18	200.62621150641
4	57	19	214.34916375668
4	60	20	228.08575674351
4	63	21	241.83543196232
4	66	22	255.5977129328
4	69	23	269.37216448151
4	72	24	283.15837495331
4	75	25	296.95594867609
4	78	26	310.76450294186
4	81	27	324.58366691401
4	84	28	338.41308129968
4	87	29	352.25239827409
4	90	30	366.10128143733
4	93	31	379.9594057158
4	96	32	393.82645717807
4	99	33	407.70213275902
4	102	34	421.58613989424
4	105	35	435.47819606737
4	108	36	449.37802826985
4	111	37	463.28537236703
4	114	38	477.19997235563
4	117	39	491.12157948613
4	120	40	505.04995120572
4	123	41	518.98484985107
4	126	42	532.92604097763
4	129	43	546.87329114285
4	132	44	560.82636473048
4	135	45	574.7849348981
4	138	46	588.74826971185
4	141	47	602.71537640823
4	144	48	616.68517668983
4	147	49	630.65648982855
4	150	50	644.62793358232
4	153	51	658.59776714603
4	156	52	672.56364874998
4	159	53	686.52215303303
4	162	54	700.45813258768
4	165	55	714.33874644556
4	168	56	728.13025618888
4	171	57	741.79122632701
4	174	58	755.26171612565
4	177	59	768.42615121099
4	180	60	780.88852828022
4	183	61	791.92777114566
4	186	62	800.63817748896
4	189	63	806.3355144846
4	192	64	809.20376845679
4	195	65	810.22110965951
4	198	66	810.40721559871
4	201	67	810.40721559871
4	204	68	810.40721559871
4	207	69	810.40721559871
4	210	70	810.40721559871
4	213	71	810.40721559871
4	216	72	810.40721559871
4	219	73	810.40721559871
4	222	74	810.40721559871
4	225	75	810.40721559871
4	228	76	810.40721559871
4	231	77	810.40721559871
4	234	78	810.40721559871
4	237	79	810.40721559871
4	240	80	810.40721559871
4	243	81	810.40721559871
4	246	82	810.40721559871
4	249	83	810.40721559871
4	252	84	810.40721559871
4	255	85	810.40721559871
4	258	86	810.40721559871
4	261	87	810.40721559871
4	264	88	810.40721559871
4	267	89	810.40721559871
4	270	90	810.40721559871
4	273	91	810.40721559871
4	276	92	810.40721559871
4	279	93	810.40721559871
4	282	94	810.40721559871
4	285	95	810.40721559871
4	288	96	810.40721559871
4	291	97	810.40721559871
4	294	98	810.40721559871
4	297	99	810.40721559871
4	300	100	810.40721559871
4	303	101	810.40721559871
4	306	102	810.40721559871
4	309	103	810.40721559871
4	312	104	810.40721559871
4	315	105	810.40721559871
4	318	106	810.40721559871
4	321	107	810.40721559871
4	324	108	810.40721559871
4	327	109	810.40721559871
4	330	110	810.40721559871
4	333	111	810.40721559871
4	336	112	810.40721559871
4	339	113	810.40721559871
4	342	114	810.40721559871
4	345	115	810.40721559871
4	348	116	810.40721559871
4	351	117	810.40721559871
4	354	118	810.40721559871
4	357	119	810.40721559871
4	360	120	810.40721559871
4	363	121	810.40721559871
4	367	122	810.40721559871
4	370	123	810.40721559871
4	373	124	810.40721559871
4	376	125	810.40721559871
4	379	126	810.40721559871
4	382	127	810.40721559871
4	385	128	810.40721559871
4	388	129	810.40721559871
4	391	130	810.40721559871
4	394	131	810.40721559871
4	397	132	810.40721559871
4	400	133	810.40721559871
4	403	134	810.40721559871
4	406	135	810.40721559871
4	409	136	810.40721559871
4	412	137	810.40721559871
4	415	138	810.40721559871
4	418	139	810.40721559871
4	421	140	810.40721559871
4	424	141	810.40721559871
4	427	142	810.40721559871
4	430	143	810.40721559871
4	433	144	810.40721559871
4	436	145	810.40721559871
4	439	146	810.40721559871
4	442	147	810.40721559871
4	445	148	810.40721559871
4	448	149	810.40721559871
4	451	150	810.40721559871
4	454	151	810.40721559871
4	457	152	810.40721559871
4	460	153	810.40721559871
4	463	154	810.40721559871
4	466	155	810.40721559871
4	469	156	810.40721559871
4	472	157	810.40721559871
4	475	158	810.40721559871
4	478	159	810.40721559871
4	481	160	810.40721559871
4	484	161	810.40721559871
4	487	162	810.40721559871
4	490	163	810.40721559871
4	493	164	810.40721559871
4	496	165	810.40721559871
4	499	166	810.40721559871
4	502	167	810.40721559871
4	505	168	810.40721559871
4	508	169	810.40721559871
4	511	170	810.40721559871
[...]
60	105	35	75.57509918667
60	108	36	87.351016034011
60	111	37	99.316675475971
60	114	38	111.36596674562
60	117	39	123.44894485073
60	120	40	135.54122630827
60	123	41	147.62955904487
60	126	42	159.70543930318
60	129	43	171.7623532596
60	132	44	183.79459242289
60	135	45	195.79675039248
60	138	46	207.76352370032
60	141	47	219.68965885078
60	144	48	231.56997845204
60	147	49	243.39945575828
60	150	50	255.17332092157
60	153	51	266.8871872157
60	156	52	278.53718696464
60	159	53	290.1201070954
60	162	54	301.63351404834
60	165	55	313.07585771902
60	168	56	324.44654461476
60	171	57	335.74597190053
60	174	58	346.97551674361
60	177	59	358.13747928154
60	180	60	369.23498217156
60	183	61	380.27183425534
60	186	62	391.2523695161
60	189	63	402.18127452058
60	192	64	413.06341762224
60	195	65	423.90369150959
60	198	66	434.70687773327
60	201	67	445.47753832849
60	204	68	456.21993598986
60	207	69	466.93797951703
60	210	70	477.63518814991
60	213	71	488.31467212873
60	216	72	498.97912996777
60	219	73	509.63086154641
60	222	74	520.27179361282
60	225	75	530.90351299299
60	228	76	541.52730289815
60	231	77	552.14417862665
60	234	78	562.75492006637
60	237	79	573.36009923939
60	240	80	583.96009513592
60	243	81	594.55505169983
60	246	82	605.1447266832
60	249	83	615.72826542306
60	252	84	626.30398384051
60	255	85	636.8691927388
60	258	86	647.41998509266
60	261	87	657.95079380292
60	264	88	668.45337237544
60	267	89	678.91442749095
60	270	90	689.30978466285
60	273	91	699.5888701091
60	276	92	709.63410574172
60	279	93	719.17501144447
60	282	94	727.6843579507
60	285	95	734.43739179958
60	288	96	738.93609629969
60	291	97	741.32986224381
60	294	98	742.26941451767
60	297	99	742.46707960404
60	300	100	742.46707960404
60	303	101	742.46707960404
60	306	102	742.46707960404
60	309	103	742.46707960404
60	312	104	742.46707960404
60	315	105	742.46707960404
60	318	106	742.46707960404
60	321	107	742.46707960404
60	324	108	742.46707960404
60	327	109	742.46707960404
60	330	110	742.46707960404
60	333	111	742.46707960404
60	336	112	742.46707960404
60	339	113	742.46707960404
60	342	114	742.46707960404
60	345	115	742.46707960404
60	348	116	742.46707960404
60	351	117	742.46707960404
60	354	118	742.46707960404
60	357	119	742.46707960404
60	360	120	742.46707960404
60	363	121	742.46707960404
60	367	122	742.46707960404
60	370	123	742.46707960404
60	373	124	742.46707960404
60	376	125	742.46707960404
60	379	126	742.46707960404
60	382	127	742.46707960404
60	385	128	742.46707960404
60	388	129	742.46707960404
60	391	130	742.46707960404
60	394	131	742.46707960404
60	397	132	742.46707960404
60	400	133	742.46707960404
60	403	134	742.46707960404
60	406	135	742.46707960404
60	409	136	742.46707960404
60	412	137	742.46707960404
60	415	138	742.46707960404
60	418	139	742.46707960404
60	421	140	742.46707960404
60	424	141	742.46707960404
60	427	142	742.46707960404
60	430	143	742.46707960404
60	433	144	742.46707960404
60	436	145	742.46707960404
60	439	146	742.46707960404
60	442	147	742.46707960404
60	445	148	742.46707960404
60	448	149	742.46707960404
60	451	150	742.46707960404
60	454	151	742.46707960404
60	457	152	742.46707960404
60	460	153	742.46707960404
60	463	154	742.46707960404
60	466	155	742.46707960404
60	469	156	742.46707960404
60	472	157	742.46707960404
60	475	158	742.46707960404
60	478	159	742.46707960404
60	481	160	742.46707960404
60	484	161	742.46707960404
60	487	162	742.46707960404
60	490	163	742.46707960404
60	493	164	742.46707960404
60	496	165	742.46707960404
60	499	166	742.46707960404
60	502	167	742.46707960404
60	505	168	742.46707960404
60	508	169	742.46707960404
60	511	170	742.46707960404
60	514	171	742.46707960404
60	517	172	742.46707960404
60	520	173	742.46707960404
60	523	174	742.46707960404
60	526	175	742.46707960404
60	529	176	742.46707960404
60	532	177	742.46707960404
60	535	178	742.46707960404
60	538	179	742.46707960404
60	541	180	742.46707960404
60	544	181	742.46707960404
60	547	182	742.46707960404
60	550	183	742.46707960404
60	553	184	742.46707960404
60	556	185	742.46707960404
60	559	186	742.46707960404
60	562	187	742.46707960404
60	565	188	742.46707960404
60	568	189	742.46707960404
60	571	190	742.46707960404
60	574	191	742.46707960404
60	577	192	742.46707960404
60	580	193	742.46707960404
60	583	194	742.46707960404
60	586	195	742.46707960404
60	589	196	742.46707960404
60	592	197	742.46707960404
60	595	198	742.46707960404
60	598	199	742.46707960404
60	601	200	742.46707960404
60	604	201	742.46707960404
60	791	202	742.46707960404
60	978	203	742.46707960404
60	1165	204	742.46707960404
60	1352	205	742.46707960404
60	1539	206	742.46707960404
60	1726	207	742.46707960404
60	1913	208	742.46707960404
60	2101	209	742.46707960404
60	2291	210	742.46707960404
60	2485	211	742.46707960404
60	2678	212	742.46707960404
60	2872	213	742.46707960404
60	3066	214	742.46707960404
60	3264	215	742.46707960404
60	3466	216	742.46707960404
60	3667	217	742.46707960404
60	3869	218	742.46707960404
60	4071	219	742.46707960404
60	4273	220	742.46707960404
60	4475	221	742.46707960404
60	4677	222	742.46707960404
60	4880	223	742.46707960404
60	5085	224	742.46707960404
60	5287	225	742.46707960404
60	5489	226	742.46707960404
60	5691	227	742.46707960404
60	5893	228	742.46707960404
60	6095	229	742.46707960404
60	6297	230	742.46707960404
60	6499	231	742.46707960404
60	6698	232	742.47269977113
60	6898	233	742.53069377102
60	7097	234	742.72720113736
60	7297	235	743.19213494917
60	7496	236	744.09186965092
60	7695	237	745.6073370844
60	7895	238	747.91187589038
60	8093	239	751.15253358775
60	8292	240	755.43233077777
60	8487	241	760.79172060741
60	8683	242	767.19361783379
60	8879	243	774.5231082207
60	9075	244	782.61043262931
60	9271	245	791.27023283533
60	9464	246	800.33707455829
60	9658	247	809.68306933807
60	9851	248	819.21861131385
60	10044	249	828.78477320261
60	10236	250	838.54428950712
60	10429	251	848.37414090676
60	10621	252	858.26028200918
60	10811	253	868.19414228804
60	11003	254	878.1703869109
60	11193	255	888.18552053968
60	11383	256	898.23704092968
60	11570	257	908.32294519332
60	11757	258	918.4414576048
60	11933	259	928.59089225734
60	12109	260	938.76959409037
60	12285	261	948.97592246692
60	12464	262	959.20825547793
60	12642	263	969.46500238352
60	12808	264	979.74461746104
60	12898	265	990.04561206868
60	12988	266	1000.3665637438
60	13072	267	1010.7061222068
60	13156	268	1021.0630126243
60	13240	269	1031.4360366558
60	13318	270	1041.8240718154
60	13396	271	1052.2260696198
60	13474	272	1062.6410529152
60	13552	273	1073.068112696
60	13630	274	1083.5064046774
60	13708	275	1093.9551458605
60	13780	276	1104.4136112041
60	13852	277	1114.8811303275
60	13918	278	1125.3570841625
60	13984	279	1135.8409028371
60	14044	280	1146.332069961
60	14104	281	1156.8301381365
60	14164	282	1167.3347516224
60	14224	283	1177.8456928095
60	14284	284	1188.3629463968
60	14344	285	1198.8866937163
60	14404	286	1209.417219731
60	14464	287	1219.9547910969
60	14518	288	1230.499559997
60	14572	289	1241.0519079454
60	14620	290	1251.6183427853
60	14662	291	1262.2270675275
60	14704	292	1272.9383091535
60	14740	293	1283.8307919852
60	14776	294	1294.9897501471
60	14806	295	1306.5257901317
69	978	203	2.0198916799173
69	1165	204	2.0225685663335
69	1352	205	2.0236833522572
69	1539	206	2.0240718058566
69	1726	207	2.0241164648486
69	1913	208	2.0239918490975
69	2101	209	2.0237768354425
69	2291	210	2.0235062021614
69	2485	211	2.0231942659791
69	2678	212	2.0228457019723
69	2872	213	2.0224604702855
69	3066	214	2.0220360271586
69	3264	215	2.0215682774422
69	3466	216	2.0210519351518
69	3667	217	2.0204805946987
69	3869	218	2.0198466472402
69	4071	219	2.0191410979678
69	4273	220	2.0183533021899
69	4475	221	2.0174706181539
69	4677	222	2.0164779620134
69	4880	223	2.0153572399444
69	5085	224	2.0140866211829
69	5287	225	2.0126396015628
69	5489	226	2.0109837878226
69	5691	227	2.0090793057731
69	5893	228	2.0068766964195
69	6095	229	2.0043141073431
69	6297	230	2.0013135027877
69	6499	231	1.9978464502772
69	6698	232	1.9944371290734
69	6898	233	1.9915715046855
69	7097	234	1.9899184895404
69	7297	235	1.9901729445408
69	7496	236	1.9927279183335
69	7695	237	1.9976184801947
69	7895	238	2.0045080506161
69	8093	239	2.0126066521194
69	8292	240	2.0206066102244
69	8487	241	2.0268630716117
69	8683	242	2.0299640899487
69	8879	243	2.0294205881742
69	9075	244	2.0258763033538
69	9271	245	2.0206198124065
69	9464	246	2.0148770374541
69	9658	247	2.0094180665741
69	9851	248	2.0045480352163
69	10044	249	2.000271080484
69	10236	250	1.9964520265058
69	10429	251	1.9929171536656
69	10621	252	1.9895009532336
69	10811	253	1.9860610093765
69	11003	254	1.98247818897
69	11193	255	1.9786515948787
69	11383	256	1.9744924615065
69	11570	257	1.9699184629976
69	11757	258	1.9648487651489
69	11933	259	1.9591997621887
69	12109	260	1.9528813449839
69	12285	261	1.945793548671
69	12464	262	1.9378234564025
69	12642	263	1.9288422769454
69	12808	264	1.9187025702773
69	12898	265	1.9072356754055
69	12988	266	1.8942495096397
69	13072	267	1.87952707357
69	13156	268	1.8628262308562
69	13240	269	1.8438816600691
69	13318	270	1.8224103204463
69	13396	271	1.7981223461992
69	13474	272	1.7707399579949
69	13552	273	1.7400276548767
69	13630	274	1.7058373676977
69	13708	275	1.6681718722495
69	13780	276	1.6272677620327
69	13852	277	1.5836945958679
69	13918	278	1.5384587586007
69	13984	279	1.4930894049161
69	14044	280	1.4496685565919
69	14104	281	1.4107533967942
69	14164	282	1.3791616242182
69	14224	283	1.3576040888834
69	14284	284	1.3481610947293
69	14344	285	1.3517671231743
69	14404	286	1.3679207985705
69	14464	287	1.3947379345112
69	14518	288	1.4295757320848
69	14572	289	1.4738039043341
69	14620	290	1.5405250976485
69	14662	291	1.6478402573234
69	14704	292	1.7967480052561
69	14740	293	1.9778396235976
69	14776	294	2.1816270302199
69	14806	295	2.575431527641
69	14836	296	4.091704428317
69	14860	297	4.5536817955112
68	978	203	-0.0022041392398826
68	1165	204	-0.0013629980200687
68	1352	205	-0.00099956588013939
68	1539	206	-0.00085747576933137
68	1726	207	-0.00081928532656939
68	1913	208	-0.00083132456854429
68	2101	209	-0.00086923963434593
68	2291	210	-0.00092218343995043
68	2485	211	-0.00098556334058841
68	2678	212	-0.0010577190903955
68	2872	213	-0.0011384077192673
68	3066	214	-0.001228120683173
68	3264	215	-0.0013277861960876
68	3466	216	-0.0014386521010117
68	3667	217	-0.0015622562114093
68	3869	218	-0.0017004425841289
68	4071	219	-0.0018554062264862
68	4273	220	-0.0020297602827632
68	4475	221	-0.0022266257239458
68	4677	222	-0.0024497472365042
68	4880	223	-0.0027036419698963
68	5085	224	-0.0029937909444353
68	5287	225	-0.0033268868701377
68	5489	226	-0.0037111575067534
68	5691	227	-0.0041567912967988
68	5893	228	-0.0046765029679356
68	6095	229	-0.0052862928618858
68	6297	230	-0.0060064776137754
68	6499	231	-0.0068424204482636
68	6698	232	-0.007638226365815
68	6898	233	-0.0082533240463913
68	7097	234	-0.0084973687317937
68	7297	235	-0.0081773879174101
68	7496	236	-0.0071938434638721
68	7695	237	-0.0055549346797132
68	7895	238	-0.0033780076916745
68	8093	239	-0.00091047924113496
68	8292	240	0.0014555353067127
68	8487	241	0.00324118580739
68	8683	242	0.0040509556312784
68	8879	243	0.0037717000339246
68	9075	244	0.0026245593971534
68	9271	245	0.0010117208500908
68	9464	246	-0.00069545524899972
68	9658	247	-0.0022698305209961
68	9851	248	-0.0036265815198711
68	10044	249	-0.0047710975886552
68	10236	250	-0.0057491976234854
68	10429	251	-0.0066165998731673
68	10621	252	-0.0074250295829028
68	10811	253	-0.0082180171513748
68	11003	254	-0.0090310989226641
68	11193	255	-0.0098935396432047
68	11383	256	-0.010830316966558
68	11570	257	-0.011863934114656
68	11757	258	-0.013015971585229
68	11933	259	-0.014308405450453
68	12109	260	-0.015764747273073
68	12285	261	-0.01741105967697
68	12464	262	-0.019276893056274
68	12642	263	-0.021396177395649
68	12808	264	-0.023808087922813
68	12898	265	-0.026557881953279
68	12988	266	-0.029697673509139
68	13072	267	-0.033287067460069
68	13156	268	-0.037393509596468
68	13240	269	-0.042092114864205
68	13318	270	-0.047464603256563
68	13396	271	-0.0535967928679
68	13474	272	-0.06057387148747
68	13552	273	-0.068472408064851
68	13630	274	-0.077347831869837
68	13708	275	-0.087216044646798
68	13780	276	-0.098028179005404
68	13852	277	-0.10963863533252
68	13918	278	-0.12176875744337
68	13984	279	-0.13397200980781
68	14044	280	-0.14561207886495
68	14104	281	-0.15587178031023
68	14164	282	-0.16380639964228
68	14224	283	-0.16845418635237
68	14284	284	-0.16901514711919
68	14344	285	-0.16504942514151
68	14404	286	-0.15661727331478
68	14464	287	-0.14430406831432
68	14518	288	-0.12902691951047
68	14572	289	-0.11028854452591
68	14620	290	-0.083295178381524
68	14662	291	-0.041555811316
68	14704	292	0.014547725692683
68	14740	293	0.080184537793826
68	14776	294	0.15023324432661
68	14806	295	0.28077444094607
68	14836	296	0.75652049541453
68	14860	297	0.83091777155638
67	791	202	13.888813706551
67	978	203	13.886609567311
67	1165	204	13.885246569291
67	1352	205	13.884247003411
67	1539	206	13.883389527642
67	1726	207	13.882570242315
67	1913	208	13.881738917746
67	2101	209	13.880869678112
67	2291	210	13.879947494672
67	2485	211	13.878961931332
67	2678	212	13.877904212241
67	2872	213	13.876765804522
67	3066	214	13.875537683839
67	3264	215	13.874209897643
67	3466	216	13.872771245542
67	3667	217	13.87120898933
67	3869	218	13.869508546746
67	4071	219	13.86765314052
67	4273	220	13.865623380237
67	4475	221	13.863396754513
67	4677	222	13.860947007276
67	4880	223	13.858243365306
67	5085	224	13.855249574362
67	5287	225	13.851922687492
67	5489	226	13.848211529985
67	5691	227	13.844054738688
67	5893	228	13.83937823572
67	6095	229	13.834091942859
67	6297	230	13.828085465245
67	6499	231	13.821243044797
67	6698	232	13.813604818431
67	6898	233	13.805351494384
67	7097	234	13.796854125653
67	7297	235	13.788676737735
67	7496	236	13.781482894271
67	7695	237	13.775927959592
67	7895	238	13.7725499519
67	8093	239	13.771639472659
67	8292	240	13.773095007965
67	8487	241	13.776336193773
67	8683	242	13.780387149404
67	8879	243	13.784158849438
67	9075	244	13.786783408835
67	9271	245	13.787795129685
67	9464	246	13.787099674436
67	9658	247	13.784829843915
67	9851	248	13.781203262395
67	10044	249	13.776432164807
67	10236	250	13.770682967183
67	10429	251	13.76406636731
67	10621	252	13.756641337727
67	10811	253	13.748423320576
67	11003	254	13.739392221653
67	11193	255	13.72949868201
67	11383	256	13.718668365043
67	11570	257	13.706804430929
67	11757	258	13.693788459343
67	11933	259	13.679480053893
67	12109	260	13.66371530662
67	12285	261	13.646304246943
67	12464	262	13.627027353887
67	12642	263	13.605631176491
67	12808	264	13.581823088568
67	12898	265	13.555265206615
67	12988	266	13.525567533106
67	13072	267	13.492280465646
67	13156	268	13.454886956049
67	13240	269	13.412794841185
67	13318	270	13.365330237929
67	13396	271	13.311733445061
67	13474	272	13.251159573573
67	13552	273	13.182687165508
67	13630	274	13.105339333638
67	13708	275	13.018123288992
67	13780	276	12.920095109986
67	13852	277	12.810456474654
67	13918	278	12.68868771721
67	13984	279	12.554715707403
67	14044	280	12.409103628538
67	14104	281	12.253231848227
67	14164	282	12.089425448585
67	14224	283	11.920971262233
67	14284	284	11.751956115114
67	14344	285	11.586906689972
67	14404	286	11.430289416657
67	14464	287	11.285985348343
67	14518	288	11.156958428832
67	14572	289	11.046669884307
67	14620	290	10.963374705925
67	14662	291	10.921818894609
67	14704	292	10.936366620302
67	14740	293	11.016551158096
67	14776	294	11.166784402422
67	14806	295	11.447558843368
67	14836	296	12.204079338783
67	14860	297	13.034997110339
66	604	201	26.6
66	791	202	26.6
66	978	203	26.6
66	1165	204	26.6
66	1352	205	26.6
66	1539	206	26.6
66	1726	207	26.6
66	1913	208	26.6
66	2101	209	26.6
66	2291	210	26.6
66	2485	211	26.6
66	2678	212	26.6
66	2872	213	26.6
66	3066	214	26.6
66	3264	215	26.6
66	3466	216	26.6
66	3667	217	26.6
66	3869	218	26.6
66	4071	219	26.6
66	4273	220	26.6
66	4475	221	26.6
66	4677	222	26.6
66	4880	223	26.6
66	5085	224	26.6
66	5287	225	26.6
66	5489	226	26.6
66	5691	227	26.6
66	5893	228	26.6
66	6095	229	26.6
66	6297	230	26.6
66	6499	231	26.6
66	6698	232	26.6
66	6898	233	26.6
66	7097	234	26.6
66	7297	235	26.6
66	7496	236	26.6
66	7695	237	26.6
66	7895	238	26.6
66	8093	239	26.6
66	8292	240	26.6
66	8487	241	26.6
66	8683	242	26.6
66	8879	243	26.6
66	9075	244	26.6
66	9271	245	26.6
66	9464	246	26.6
66	9658	247	26.6
66	9851	248	26.6
66	10044	249	26.6
66	10236	250	26.6
66	10429	251	26.6
66	10621	252	26.6
66	10811	253	26.6
66	11003	254	26.6
66	11193	255	26.6
66	11383	256	26.6
66	11570	257	26.6
66	11757	258	26.6
66	11933	259	26.6
66	12109	260	26.6
66	12285	261	26.6
66	12464	262	26.6
66	12642	263	26.6
66	12808	264	26.6
66	12898	265	26.6
66	12988	266	26.6
66	13072	267	26.6
66	13156	268	26.6
66	13240	269	26.6
66	13318	270	26.6
66	13396	271	26.6
66	13474	272	26.6
66	13552	273	26.6
66	13630	274	26.6
66	13708	275	26.6
66	13780	276	26.6
66	13852	277	26.6
66	13918	278	26.6
66	13984	279	26.6
66	14044	280	26.6
66	14104	281	26.6
66	14164	282	26.6
66	14224	283	26.6
66	14284	284	26.6
66	14344	285	26.6
66	14404	286	26.6
66	14464	287	26.6
66	14518	288	26.6
66	14572	289	26.6
66	14620	290	26.6
66	14662	291	26.6
66	14704	292	26.6
66	14740	293	26.6
66	14776	294	26.6
66	14806	295	26.6
66	14836	296	26.6
66	14860	297	26.6
65	604	201	44.106107776039
65	791	202	44.106107776039
65	978	203	57.996536478003
65	1165	204	71.884037640642
65	1352	205	85.769853327382
65	1539	206	99.654531783534
65	1726	207	113.53830088331
65	1913	208	127.42123924678
65	2101	209	141.30335455594
65	2291	210	155.18461924215
65	2485	211	169.06498655841
65	2678	212	182.94439759548
65	2872	213	196.82278408292
65	3066	214	210.70006918868
65	3264	215	224.57616732202
65	3466	216	238.45098338679
65	3667	217	252.32441167217
65	3869	218	266.19633444525
65	4071	219	280.06662024745
65	4273	220	293.93512186204
65	4475	221	307.80167389565
65	4677	222	321.66608989419
65	4880	223	335.52815888964
65	5085	224	349.38764124436
65	5287	225	363.24426362171
65	5489	226	377.09771286179
65	5691	227	390.94762847488
65	5893	228	404.79359337553
65	6095	229	418.63512235837
65	6297	230	432.47164764867
65	6499	231	446.30250062696
65	6698	232	460.12689337729
65	6898	233	473.94399569095
65	7097	234	487.75310000862
65	7297	235	501.55377715567
65	7496	236	515.34608062174
65	7695	237	529.13069165199
65	7895	238	542.90895926038
65	8093	239	556.68283287471
65	8292	240	570.45467572766
65	8487	241	584.22693718101
65	8683	242	598.00170341864
65	8879	243	611.78024677458
65	9075	244	625.56277263259
65	9271	245	639.34849526602
65	9464	246	653.1359767409
65	9658	247	666.92352696187
65	9851	248	680.70949955813
65	10044	249	694.49243744439
65	10236	250	708.27110332772
65	10429	251	722.04444872371
65	10621	252	735.81156096445
65	10811	253	749.57160902974
65	11003	254	763.32379622417
65	11193	255	777.06732115113
65	11383	256	790.80134578959
65	11570	257	804.52496874681
65	11757	258	818.23720178046
65	11933	259	831.83694792048
65	12109	260	845.52297977161
65	12285	261	859.19391678088
65	12464	262	872.84820040293
65	12642	263	886.48406619411
65	12808	264	900.09951192567
65	12898	265	913.69226083935
65	12988	266	927.25971919428
65	13072	267	940.79892729815
65	13156	268	954.30650331667
65	13240	269	967.77857936796
65	13318	270	981.21072981458
65	13396	271	994.59789237843
65	13474	272	1007.934283882
65	13552	273	1021.2133142703
65	13630	274	1034.4275053375
65	13708	275	1047.5684245298
65	13780	276	1060.6266494657
65	13852	277	1073.5917852826
65	13918	278	1086.4525638324
65	13984	279	1099.1970594043
65	14044	280	1111.813057149
65	14104	281	1124.2886031542
65	14164	282	1136.6127427114
65	14224	283	1148.7764140441
65	14284	284	1160.7734145159
65	14344	285	1172.6012901585
65	14404	286	1184.2619526599
65	14464	287	1195.7618515401
65	14518	288	1207.1116216743
65	14572	289	1218.3252743269
65	14620	290	1229.4197988553
65	14662	291	1240.4178939566
65	14704	292	1251.3542502269
65	14740	293	1262.2790040637
65	14776	294	1273.2543580423
65	14806	295	1284.3427150114
65	14836	296	1295.659463148
65	14860	297	1307.4119692335

